version 3
run VoIP-0-20241129-23:42:38-2920
attr configname VoIP
attr datetime 20241129-23:42:38
attr datetimef 20241129-234238
attr experiment VoIP
attr inifile omnetppMulticell.ini
attr iterationvars $numUEs=10
attr iterationvarsd numUEs=10
attr iterationvarsf numUEs=10-
attr measurement $numUEs=10
attr network _4gltefinal.simulations.MultiCell
attr processid 2920
attr repetition 0
attr replication #0
attr resultdir results
attr runnumber 0
attr seedset 0
itervar numUEs 10
config image-path ../../inet4.5/images;../../simu5g/images
config network _4gltefinal.simulations.MultiCell
config **.mac.schedulingDisciplineDl "\"MAXCI\""
config **.mac.schedulingDisciplineUl "\"MAXCI\""
config **.ue[*].numApps 1
config **.server.numApps 1
config **.ue[*].mobility.initFromDisplayString false
config **.ue[*].mobility.typename LinearMobility
config **.ue[*].mobility.speed "uniform(1mps, 3mps)"
config **.ue[*].macCellId "intuniform(1, 3)"
config **.ue[*].masterId "intuniform(1, 3)"
config **.ue[*].app[*].typename VoIPReceiver
config **.ue[*].app[*].localPort 3000
config **.server.app[*].PacketSize 40
config **.server.app[*].destAddress "\"ue[\"+string(ancestorIndex(0))+\"]\""
config **.server.app[*].destPort 3000
config **.server.app[*].localPort "3088 + ancestorIndex(0)"
config **.server.app[*].typename VoIPSender
config **.server.app[*].startTime "uniform(0s, 0.02s)"
config **.server.app[*].qos "\"HighPriority\""
config **.ue[*].app[*].qos "\"HighPriority\""
config image-path ../../images
config output-scalar-file-append false
config sim-time-limit 20s
config output-scalar-file results/VoIP/0.sca
config output-vector-file results/VoIP/0.vec
config seed-set 0
config **.vector-recording true
config **.ue[*].mobility.typename StationaryMobility
config **.ue[*].mobility.initialX "uniform(400m, 800m)"
config **.ue[*].mobility.initialY "uniform(400m, 800m)"
config **.ue[*].mobility.initialZ 0m
config **.mobility.constraintAreaMinX 0m
config **.mobility.constraintAreaMinY 0m
config **.mobility.constraintAreaMaxX 2000m
config **.mobility.constraintAreaMaxY 2000m
config **.mobility.constraintAreaMinZ 0m
config **.mobility.constraintAreaMaxZ 0m
config **.mobility.initFromDisplayString true
config *.numCells 3
config *.numUe 10
config **.ueTxPower 26
config **.eNodeBTxPower 40
config *.configurator.config "xmldoc(\"./demo.xml\")"

par MultiCell.server.pppg$o[0].channel typename "\"inet.node.ethernet.Eth10G\""
par MultiCell.server.pppg$o[0].channel disabled false
attr mutable ""
par MultiCell.server.pppg$o[0].channel delay 5e-08s
attr mutable ""
attr unit s
par MultiCell.server.pppg$o[0].channel datarate 1e+10bps
attr mutable ""
attr unit bps
par MultiCell.server.pppg$o[0].channel ber 0
attr mutable ""
par MultiCell.server.pppg$o[0].channel per 0
attr mutable ""
par MultiCell.server.pppg$o[0].channel length 10m
attr unit m
par MultiCell.router.pppg$o[0].channel typename "\"inet.node.ethernet.Eth10G\""
par MultiCell.router.pppg$o[0].channel disabled false
attr mutable ""
par MultiCell.router.pppg$o[0].channel delay 5e-08s
attr mutable ""
attr unit s
par MultiCell.router.pppg$o[0].channel datarate 1e+10bps
attr mutable ""
attr unit bps
par MultiCell.router.pppg$o[0].channel ber 0
attr mutable ""
par MultiCell.router.pppg$o[0].channel per 0
attr mutable ""
par MultiCell.router.pppg$o[0].channel length 10m
attr unit m
par MultiCell.router.pppg$o[1].channel typename "\"inet.node.ethernet.Eth10G\""
par MultiCell.router.pppg$o[1].channel disabled false
attr mutable ""
par MultiCell.router.pppg$o[1].channel delay 5e-08s
attr mutable ""
attr unit s
par MultiCell.router.pppg$o[1].channel datarate 1e+10bps
attr mutable ""
attr unit bps
par MultiCell.router.pppg$o[1].channel ber 0
attr mutable ""
par MultiCell.router.pppg$o[1].channel per 0
attr mutable ""
par MultiCell.router.pppg$o[1].channel length 10m
attr unit m
par MultiCell.pgw.filterGate$o.channel typename "\"inet.node.ethernet.Eth10G\""
par MultiCell.pgw.filterGate$o.channel disabled false
attr mutable ""
par MultiCell.pgw.filterGate$o.channel delay 5e-08s
attr mutable ""
attr unit s
par MultiCell.pgw.filterGate$o.channel datarate 1e+10bps
attr mutable ""
attr unit bps
par MultiCell.pgw.filterGate$o.channel ber 0
attr mutable ""
par MultiCell.pgw.filterGate$o.channel per 0
attr mutable ""
par MultiCell.pgw.filterGate$o.channel length 10m
attr unit m
par MultiCell.pgw.pppg$o[0].channel typename "\"inet.node.ethernet.Eth10G\""
par MultiCell.pgw.pppg$o[0].channel disabled false
attr mutable ""
par MultiCell.pgw.pppg$o[0].channel delay 5e-08s
attr mutable ""
attr unit s
par MultiCell.pgw.pppg$o[0].channel datarate 1e+10bps
attr mutable ""
attr unit bps
par MultiCell.pgw.pppg$o[0].channel ber 0
attr mutable ""
par MultiCell.pgw.pppg$o[0].channel per 0
attr mutable ""
par MultiCell.pgw.pppg$o[0].channel length 10m
attr unit m
par MultiCell.eNB[0].ppp$o.channel typename "\"inet.node.ethernet.Eth10G\""
par MultiCell.eNB[0].ppp$o.channel disabled false
attr mutable ""
par MultiCell.eNB[0].ppp$o.channel delay 5e-08s
attr mutable ""
attr unit s
par MultiCell.eNB[0].ppp$o.channel datarate 1e+10bps
attr mutable ""
attr unit bps
par MultiCell.eNB[0].ppp$o.channel ber 0
attr mutable ""
par MultiCell.eNB[0].ppp$o.channel per 0
attr mutable ""
par MultiCell.eNB[0].ppp$o.channel length 10m
attr unit m
par MultiCell.pgw.pppg$o[1].channel typename "\"inet.node.ethernet.Eth10G\""
par MultiCell.pgw.pppg$o[1].channel disabled false
attr mutable ""
par MultiCell.pgw.pppg$o[1].channel delay 5e-08s
attr mutable ""
attr unit s
par MultiCell.pgw.pppg$o[1].channel datarate 1e+10bps
attr mutable ""
attr unit bps
par MultiCell.pgw.pppg$o[1].channel ber 0
attr mutable ""
par MultiCell.pgw.pppg$o[1].channel per 0
attr mutable ""
par MultiCell.pgw.pppg$o[1].channel length 10m
attr unit m
par MultiCell.eNB[1].ppp$o.channel typename "\"inet.node.ethernet.Eth10G\""
par MultiCell.eNB[1].ppp$o.channel disabled false
attr mutable ""
par MultiCell.eNB[1].ppp$o.channel delay 5e-08s
attr mutable ""
attr unit s
par MultiCell.eNB[1].ppp$o.channel datarate 1e+10bps
attr mutable ""
attr unit bps
par MultiCell.eNB[1].ppp$o.channel ber 0
attr mutable ""
par MultiCell.eNB[1].ppp$o.channel per 0
attr mutable ""
par MultiCell.eNB[1].ppp$o.channel length 10m
attr unit m
par MultiCell.pgw.pppg$o[2].channel typename "\"inet.node.ethernet.Eth10G\""
par MultiCell.pgw.pppg$o[2].channel disabled false
attr mutable ""
par MultiCell.pgw.pppg$o[2].channel delay 5e-08s
attr mutable ""
attr unit s
par MultiCell.pgw.pppg$o[2].channel datarate 1e+10bps
attr mutable ""
attr unit bps
par MultiCell.pgw.pppg$o[2].channel ber 0
attr mutable ""
par MultiCell.pgw.pppg$o[2].channel per 0
attr mutable ""
par MultiCell.pgw.pppg$o[2].channel length 10m
attr unit m
par MultiCell.eNB[2].ppp$o.channel typename "\"inet.node.ethernet.Eth10G\""
par MultiCell.eNB[2].ppp$o.channel disabled false
attr mutable ""
par MultiCell.eNB[2].ppp$o.channel delay 5e-08s
attr mutable ""
attr unit s
par MultiCell.eNB[2].ppp$o.channel datarate 1e+10bps
attr mutable ""
attr unit bps
par MultiCell.eNB[2].ppp$o.channel ber 0
attr mutable ""
par MultiCell.eNB[2].ppp$o.channel per 0
attr mutable ""
par MultiCell.eNB[2].ppp$o.channel length 10m
attr unit m
par MultiCell.channelControl typename "\"simu5g.world.radio.LteChannelControl\""
par MultiCell.channelControl coreDebug false
par MultiCell.channelControl pMax 20mW
attr unit mW
par MultiCell.channelControl sat -110dBm
attr unit dBm
par MultiCell.channelControl alpha 2
par MultiCell.channelControl carrierFrequency 2.4e+09Hz
attr unit Hz
par MultiCell.channelControl numChannels 1
par MultiCell.channelControl propagationModel "\"FreeSpaceModel\""
attr enum FreeSpaceModel,TwoRayGroundModel,RiceModel,RayleighModel,NakagamiModel,LogNormalShadowingModel
par MultiCell.routingRecorder typename "\"inet.networklayer.ipv4.RoutingTableRecorder\""
par MultiCell.routingRecorder enabled true
par MultiCell.configurator typename "\"inet.networklayer.configurator.ipv4.Ipv4NetworkConfigurator\""
par MultiCell.configurator minLinkWeight 0.001
par MultiCell.configurator configureIsolatedNetworksSeparatly false
par MultiCell.configurator config "<config>...</config> at C:/Users/Lazuardi/Downloads/omnetpp-6.0.3/samples/4GLteFinal/simulations/\\./demo.xml:1"
par MultiCell.configurator assignAddresses true
par MultiCell.configurator assignUniqueAddresses true
par MultiCell.configurator assignDisjunctSubnetAddresses true
par MultiCell.configurator addStaticRoutes true
par MultiCell.configurator addDefaultRoutes true
par MultiCell.configurator addSubnetRoutes true
par MultiCell.configurator addDirectRoutes true
par MultiCell.configurator optimizeRoutes true
par MultiCell.configurator dumpTopology false
par MultiCell.configurator dumpLinks false
par MultiCell.configurator dumpAddresses false
par MultiCell.configurator dumpRoutes false
par MultiCell.configurator dumpConfig "\"\""
par MultiCell.binder typename "\"simu5g.common.binder.Binder\""
par MultiCell.binder blerShift 0
par MultiCell.binder maxDataRatePerRb 1.16Mbps
attr unit Mbps
par MultiCell.binder printTrafficGeneratorConfig false
par MultiCell.carrierAggregation.componentCarrier[0] typename "\"simu5g.common.carrierAggregation.ComponentCarrier\""
par MultiCell.carrierAggregation.componentCarrier[0] carrierFrequency 2GHz
attr unit GHz
par MultiCell.carrierAggregation.componentCarrier[0] numBands 6
par MultiCell.carrierAggregation.componentCarrier[0] numerologyIndex 0
par MultiCell.carrierAggregation.componentCarrier[0] useTdd false
par MultiCell.carrierAggregation.componentCarrier[0] tddNumSymbolsDl 7
par MultiCell.carrierAggregation.componentCarrier[0] tddNumSymbolsUl 7
par MultiCell.carrierAggregation typename "\"simu5g.common.carrierAggregation.CarrierAggregation\""
par MultiCell.carrierAggregation numComponentCarriers 1
par MultiCell.server.pppg$i[0].channel typename "\"ned.IdealChannel\""
par MultiCell.server.ppp[0].phys$o.channel typename "\"ned.IdealChannel\""
par MultiCell.server.interfaceTable typename "\"inet.networklayer.common.InterfaceTable\""
par MultiCell.server.interfaceTable displayAddresses false
par MultiCell.server.cb typename "\"inet.common.MessageDispatcher\""
par MultiCell.server.cb displayStringTextFormat "\"processed %p pk (%l)\""
par MultiCell.server.cb forwardServiceRegistration true
par MultiCell.server.cb forwardProtocolRegistration true
par MultiCell.server.bl typename "\"inet.common.MessageDispatcher\""
par MultiCell.server.bl displayStringTextFormat "\"processed %p pk (%l)\""
par MultiCell.server.bl forwardServiceRegistration true
par MultiCell.server.bl forwardProtocolRegistration true
par MultiCell.server.li typename "\"inet.common.MessageDispatcher\""
par MultiCell.server.li displayStringTextFormat "\"processed %p pk (%l)\""
par MultiCell.server.li forwardServiceRegistration true
par MultiCell.server.li forwardProtocolRegistration true
par MultiCell.server.lo[0].upperLayerIn.channel typename "\"ned.IdealChannel\""
par MultiCell.server.lo[0].lo.upperLayerOut.channel typename "\"ned.IdealChannel\""
par MultiCell.server.lo[0].lo typename "\"inet.linklayer.loopback.Loopback\""
par MultiCell.server.lo[0].lo interfaceTableModule "\"MultiCell.server.interfaceTable\""
par MultiCell.server.lo[0].lo mtu 4470B
attr unit B
scalar MultiCell.server.lo[0].lo rcvdPkFromHl:count 0
attr interpolationmode none
attr recordingmode count
attr source packetReceivedFromUpper
attr title "packets received from higher layer, count"
scalar MultiCell.server.lo[0].lo rcvdPkFromHl:sum(packetBytes) 0
attr interpolationmode none
attr recordingmode sum(packetBytes)
attr source packetReceivedFromUpper
attr title "packets received from higher layer, sum(packetBytes)"
scalar MultiCell.server.lo[0].lo passedUpPk:count 0
attr interpolationmode none
attr recordingmode count
attr source packetSentToUpper
attr title "packets passed to higher layer, count"
scalar MultiCell.server.lo[0].lo passedUpPk:sum(packetBytes) 0
attr interpolationmode none
attr recordingmode sum(packetBytes)
attr source packetSentToUpper
attr title "packets passed to higher layer, sum(packetBytes)"
par MultiCell.server.lo[0] typename "\"inet.linklayer.loopback.LoopbackInterface\""
par MultiCell.server.lo[0] displayStringTextFormat "\"%a (%i)\\n%m\""
par MultiCell.server.lo[0] recordPcap false
par MultiCell.server.lo[0] numPcapRecorders 0
par MultiCell.server.lo[0] interfaceTableModule "\"MultiCell.server.interfaceTable\""
scalar MultiCell.server.lo[0] packetDropInterfaceDown:count 0
attr interpolationmode none
attr recordingmode count
attr source packetDropReasonIsInterfaceDown(packetDropped)
attr title "packet drops: interface down, count"
scalar MultiCell.server.lo[0] packetDropInterfaceDown:sum(packetBytes) 0
attr interpolationmode none
attr recordingmode sum(packetBytes)
attr source packetDropReasonIsInterfaceDown(packetDropped)
attr title "packet drops: interface down, sum(packetBytes)"
scalar MultiCell.server.lo[0] packetDropNoCarrier:count 0
attr interpolationmode none
attr recordingmode count
attr source packetDropReasonIsNoCarrier(packetDropped)
attr title "packet drops: no carrier, count"
scalar MultiCell.server.lo[0] packetDropNoCarrier:sum(packetBytes) 0
attr interpolationmode none
attr recordingmode sum(packetBytes)
attr source packetDropReasonIsNoCarrier(packetDropped)
attr title "packet drops: no carrier, sum(packetBytes)"
par MultiCell.server.ppp[0].phys$i.channel typename "\"ned.IdealChannel\""
par MultiCell.server.ppp[0].ppp.phys$o.channel typename "\"ned.IdealChannel\""
par MultiCell.server.ppp[0].ppp.upperLayerOut.channel typename "\"ned.IdealChannel\""
par MultiCell.server.ppp[0].upperLayerIn.channel typename "\"ned.IdealChannel\""
par MultiCell.server.ppp[0].queue typename "\"inet.queueing.queue.DropTailQueue\""
par MultiCell.server.ppp[0].queue displayStringTextFormat "\"contains %p pk (%l) pushed %u\\npulled %o removed %r dropped %d\""
par MultiCell.server.ppp[0].queue packetCapacity 10000
par MultiCell.server.ppp[0].queue dataCapacity -1b
attr unit b
par MultiCell.server.ppp[0].queue dropperClass "\"inet::queueing::PacketAtCollectionEndDropper\""
par MultiCell.server.ppp[0].queue comparatorClass "\"\""
par MultiCell.server.ppp[0].queue bufferModule "\"\""
scalar MultiCell.server.ppp[0].queue queueLength:last 0
attr autoWarmupFilter false
attr interpolationmode sample-hold
attr recordingmode last
attr source "warmup(atomic(constant0(packetPushEnded) + count(packetPushStarted) - count(packetPulled) - count(packetRemoved) - count(packetDropped)))"
attr title "queue length, last"
attr unit pk
scalar MultiCell.server.ppp[0].queue queueLength:max 0
attr autoWarmupFilter false
attr interpolationmode sample-hold
attr recordingmode max
attr source "warmup(atomic(constant0(packetPushEnded) + count(packetPushStarted) - count(packetPulled) - count(packetRemoved) - count(packetDropped)))"
attr title "queue length, max"
attr unit pk
scalar MultiCell.server.ppp[0].queue queueLength:timeavg 0
attr autoWarmupFilter false
attr interpolationmode sample-hold
attr recordingmode timeavg
attr source "warmup(atomic(constant0(packetPushEnded) + count(packetPushStarted) - count(packetPulled) - count(packetRemoved) - count(packetDropped)))"
attr title "queue length, timeavg"
attr unit pk
scalar MultiCell.server.ppp[0].queue queueBitLength:last 0
attr autoWarmupFilter false
attr interpolationmode sample-hold
attr recordingmode last
attr source "warmup(atomic(constant0(packetPushEnded) + sum(packetLength(packetPushStarted)) - sum(packetLength(packetPulled)) - sum(packetLength(packetRemoved)) - sum(packetLength(packetDropped))))"
attr title "queue bit length, last"
attr unit b
scalar MultiCell.server.ppp[0].queue queueBitLength:max 0
attr autoWarmupFilter false
attr interpolationmode sample-hold
attr recordingmode max
attr source "warmup(atomic(constant0(packetPushEnded) + sum(packetLength(packetPushStarted)) - sum(packetLength(packetPulled)) - sum(packetLength(packetRemoved)) - sum(packetLength(packetDropped))))"
attr title "queue bit length, max"
attr unit b
scalar MultiCell.server.ppp[0].queue queueBitLength:timeavg 0
attr autoWarmupFilter false
attr interpolationmode sample-hold
attr recordingmode timeavg
attr source "warmup(atomic(constant0(packetPushEnded) + sum(packetLength(packetPushStarted)) - sum(packetLength(packetPulled)) - sum(packetLength(packetRemoved)) - sum(packetLength(packetDropped))))"
attr title "queue bit length, timeavg"
attr unit b
statistic MultiCell.server.ppp[0].queue queueingTime:histogram
field count 1
field mean 0
field stddev nan
field min 0
field max 0
field sum 0
field sqrsum 0
attr interpolationmode none
attr recordingmode histogram
attr source queueingTime(packetPulled)
attr title "queueing times"
attr unit s
bin	-inf	0
bin	-0.5	0
bin	-0.48	0
bin	-0.46	0
bin	-0.44	0
bin	-0.42	0
bin	-0.4	0
bin	-0.38	0
bin	-0.36	0
bin	-0.34	0
bin	-0.32	0
bin	-0.3	0
bin	-0.28	0
bin	-0.26	0
bin	-0.24	0
bin	-0.22	0
bin	-0.2	0
bin	-0.18	0
bin	-0.16	0
bin	-0.14	0
bin	-0.12	0
bin	-0.1	0
bin	-0.08	0
bin	-0.06	0
bin	-0.04	0
bin	-0.02	0
bin	0	1
bin	0.02	0
bin	0.04	0
bin	0.06	0
bin	0.08	0
bin	0.1	0
bin	0.12	0
bin	0.14	0
bin	0.16	0
bin	0.18	0
bin	0.2	0
bin	0.22	0
bin	0.24	0
bin	0.26	0
bin	0.28	0
bin	0.3	0
bin	0.32	0
bin	0.34	0
bin	0.36	0
bin	0.38	0
bin	0.4	0
bin	0.42	0
bin	0.44	0
bin	0.46	0
bin	0.48	0
bin	0.5	0
scalar MultiCell.server.ppp[0].queue outgoingPackets:count 1
attr recordingmode count
attr source packetPulled
attr title "outgoing packets, count"
attr unit pk
scalar MultiCell.server.ppp[0].queue outgoingPacketLengths:sum 544
attr interpolationmode none
attr recordingmode sum
attr source packetLength(packetPulled)
attr title "outgoing packet lengths, sum"
attr unit b
statistic MultiCell.server.ppp[0].queue outgoingPacketLengths:histogram
field count 1
field mean 544
field stddev nan
field min 544
field max 544
field sum 544
field sqrsum 295936
attr interpolationmode none
attr recordingmode histogram
attr source packetLength(packetPulled)
attr title "outgoing packet lengths"
attr unit b
bin	-inf	0
bin	543	0
bin	544	1
bin	545	0
statistic MultiCell.server.ppp[0].queue flowQueueingTime:histogram
field count 0
field mean nan
field stddev nan
field min nan
field max nan
field sum 0
field sqrsum 0
attr interpolationmode none
attr recordingmode histogram
attr source queueingTime(demuxFlow(packetPulled))
attr title "flow queueing times"
attr unit s
bin	-inf	0
bin	0	0
bin	1	0
scalar MultiCell.server.ppp[0].queue incomingPackets:count 1
attr recordingmode count
attr source packetPushStarted
attr title "incoming packets, count"
attr unit pk
scalar MultiCell.server.ppp[0].queue incomingPacketLengths:sum 544
attr interpolationmode none
attr recordingmode sum
attr source packetLength(packetPushStarted)
attr title "incoming packet lengths, sum"
attr unit b
statistic MultiCell.server.ppp[0].queue incomingPacketLengths:histogram
field count 1
field mean 544
field stddev nan
field min 544
field max 544
field sum 544
field sqrsum 295936
attr interpolationmode none
attr recordingmode histogram
attr source packetLength(packetPushStarted)
attr title "incoming packet lengths"
attr unit b
bin	-inf	0
bin	543	0
bin	544	1
bin	545	0
scalar MultiCell.server.ppp[0].queue droppedPacketsQueueOverflow:count 0
attr interpolationmode none
attr recordingmode count
attr source packetDropReasonIsQueueOverflow(packetDropped)
attr title "dropped packets: queue overflow, count"
attr unit pk
scalar MultiCell.server.ppp[0].queue droppedPacketLengthsQueueOverflow:sum 0
attr interpolationmode none
attr recordingmode sum
attr source packetLength(packetDropReasonIsQueueOverflow(packetDropped))
attr title "dropped packet lengths: queue overflow, sum"
attr unit b
par MultiCell.server.ppp[0].ppp typename "\"inet.linklayer.ppp.Ppp\""
par MultiCell.server.ppp[0].ppp interfaceTableModule "\"MultiCell.server.interfaceTable\""
par MultiCell.server.ppp[0].ppp displayStringTextFormat "\"rate: %b\\nsent: %s, rcvd: %r\\nqueue: %q, drop: %d\""
par MultiCell.server.ppp[0].ppp sendRawBytes false
par MultiCell.server.ppp[0].ppp mtu 4470B
attr unit B
par MultiCell.server.ppp[0].ppp stopOperationExtraTime -1s
attr unit s
par MultiCell.server.ppp[0].ppp stopOperationTimeout 2s
attr unit s
scalar MultiCell.server.ppp[0].ppp txPk:count 1
attr interpolationmode none
attr recordingmode count
attr source packetSentToLower
attr title "packets transmitted, count"
scalar MultiCell.server.ppp[0].ppp txPk:sum(packetBytes) 75
attr interpolationmode none
attr recordingmode sum(packetBytes)
attr source packetSentToLower
attr title "packets transmitted, sum(packetBytes)"
scalar MultiCell.server.ppp[0].ppp rcvdPkFromHl:count 1
attr interpolationmode none
attr recordingmode count
attr source packetReceivedFromUpper
attr title "packets received from higher layer, count"
scalar MultiCell.server.ppp[0].ppp rcvdPkFromHl:sum(packetBytes) 68
attr interpolationmode none
attr recordingmode sum(packetBytes)
attr source packetReceivedFromUpper
attr title "packets received from higher layer, sum(packetBytes)"
scalar MultiCell.server.ppp[0].ppp passedUpPk:count 0
attr interpolationmode none
attr recordingmode count
attr source packetSentToUpper
attr title "packets passed to higher layer, count"
scalar MultiCell.server.ppp[0].ppp passedUpPk:sum(packetBytes) 0
attr interpolationmode none
attr recordingmode sum(packetBytes)
attr source packetSentToUpper
attr title "packets passed to higher layer, sum(packetBytes)"
scalar MultiCell.server.ppp[0].ppp packetDropIncorrectlyReceived:count 0
attr interpolationmode none
attr recordingmode count
attr source packetDropReasonIsIncorrectlyReceived(packetDropped)
attr title "packet drop: incorrectly received, count"
scalar MultiCell.server.ppp[0].ppp packetDropIncorrectlyReceived:sum(packetBytes) 0
attr interpolationmode none
attr recordingmode sum(packetBytes)
attr source packetDropReasonIsIncorrectlyReceived(packetDropped)
attr title "packet drop: incorrectly received, sum(packetBytes)"
scalar MultiCell.server.ppp[0].ppp packetDropInterfaceDown:count 0
attr interpolationmode none
attr recordingmode count
attr source packetDropReasonIsInterfaceDown(packetDropped)
attr title "packet drop: interface down, count"
scalar MultiCell.server.ppp[0].ppp packetDropInterfaceDown:sum(packetBytes) 0
attr interpolationmode none
attr recordingmode sum(packetBytes)
attr source packetDropReasonIsInterfaceDown(packetDropped)
attr title "packet drop: interface down, sum(packetBytes)"
scalar MultiCell.server.ppp[0].ppp rxPkOk:count 0
attr interpolationmode none
attr recordingmode count
attr source rxPkOk
attr title "packets received OK, count"
scalar MultiCell.server.ppp[0].ppp rxPkOk:sum(packetBytes) 0
attr interpolationmode none
attr recordingmode sum(packetBytes)
attr source rxPkOk
attr title "packets received OK, sum(packetBytes)"
scalar MultiCell.server.ppp[0].ppp transmissionState:timeavg 3e-06
attr interpolationmode sample-hold
attr recordingmode timeavg
attr source transmissionStateChanged
attr title "tx state, timeavg"
par MultiCell.server.ppp[0] typename "\"inet.linklayer.ppp.PppInterface\""
par MultiCell.server.ppp[0] displayStringTextFormat "\"%a (%i)\\n%m\""
par MultiCell.server.ppp[0] recordPcap false
par MultiCell.server.ppp[0] numPcapRecorders 0
par MultiCell.server.ppp[0] interfaceTableModule "\"MultiCell.server.interfaceTable\""
scalar MultiCell.server.ppp[0] packetDropInterfaceDown:count 0
attr interpolationmode none
attr recordingmode count
attr source packetDropReasonIsInterfaceDown(packetDropped)
attr title "packet drops: interface down, count"
scalar MultiCell.server.ppp[0] packetDropInterfaceDown:sum(packetBytes) 0
attr interpolationmode none
attr recordingmode sum(packetBytes)
attr source packetDropReasonIsInterfaceDown(packetDropped)
attr title "packet drops: interface down, sum(packetBytes)"
scalar MultiCell.server.ppp[0] packetDropNoCarrier:count 0
attr interpolationmode none
attr recordingmode count
attr source packetDropReasonIsNoCarrier(packetDropped)
attr title "packet drops: no carrier, count"
scalar MultiCell.server.ppp[0] packetDropNoCarrier:sum(packetBytes) 0
attr interpolationmode none
attr recordingmode sum(packetBytes)
attr source packetDropReasonIsNoCarrier(packetDropped)
attr title "packet drops: no carrier, sum(packetBytes)"
par MultiCell.server.ipv4.transportIn.channel typename "\"ned.IdealChannel\""
par MultiCell.server.ipv4.up.out[0].channel typename "\"ned.IdealChannel\""
par MultiCell.server.ipv4.lp.out[2].channel typename "\"ned.IdealChannel\""
par MultiCell.server.ipv4.ifIn.channel typename "\"ned.IdealChannel\""
par MultiCell.server.ipv4.configurator typename "\"inet.networklayer.configurator.ipv4.Ipv4NodeConfigurator\""
par MultiCell.server.ipv4.configurator interfaceTableModule "\"MultiCell.server.interfaceTable\""
par MultiCell.server.ipv4.configurator routingTableModule "\"MultiCell.server.ipv4.routingTable\""
par MultiCell.server.ipv4.configurator networkConfiguratorModule "\"configurator\""
par MultiCell.server.ipv4.configurator configureRoutingTable true
par MultiCell.server.ipv4.routingTable typename "\"inet.networklayer.ipv4.Ipv4RoutingTable\""
par MultiCell.server.ipv4.routingTable interfaceTableModule "\"MultiCell.server.interfaceTable\""
par MultiCell.server.ipv4.routingTable routerId "\"auto\""
par MultiCell.server.ipv4.routingTable netmaskRoutes "\"*\""
par MultiCell.server.ipv4.routingTable forwarding false
par MultiCell.server.ipv4.routingTable multicastForwarding false
par MultiCell.server.ipv4.routingTable useAdminDist false
par MultiCell.server.ipv4.routingTable routingFile "\"\""
par MultiCell.server.ipv4.natTable typename "\"inet.networklayer.ipv4.Ipv4NatTable\""
par MultiCell.server.ipv4.natTable networkProtocolModule "\"^.ip\""
par MultiCell.server.ipv4.natTable config "<config/> at content:1"
par MultiCell.server.ipv4.up typename "\"inet.common.MessageDispatcher\""
par MultiCell.server.ipv4.up displayStringTextFormat "\"processed %p pk (%l)\""
par MultiCell.server.ipv4.up forwardServiceRegistration true
par MultiCell.server.ipv4.up forwardProtocolRegistration true
par MultiCell.server.ipv4.igmp typename "\"inet.networklayer.ipv4.Igmpv2\""
par MultiCell.server.ipv4.igmp interfaceTableModule "\"MultiCell.server.interfaceTable\""
par MultiCell.server.ipv4.igmp routingTableModule "\"MultiCell.server.ipv4.routingTable\""
par MultiCell.server.ipv4.igmp crcMode "\"declared\""
attr enum declared,computed
par MultiCell.server.ipv4.igmp enabled true
par MultiCell.server.ipv4.igmp robustnessVariable 2
par MultiCell.server.ipv4.igmp queryInterval 125s
attr unit s
par MultiCell.server.ipv4.igmp queryResponseInterval 10s
attr unit s
par MultiCell.server.ipv4.igmp groupMembershipInterval 260s
attr unit s
par MultiCell.server.ipv4.igmp otherQuerierPresentInterval 255s
attr unit s
par MultiCell.server.ipv4.igmp startupQueryInterval 31.25s
attr unit s
par MultiCell.server.ipv4.igmp startupQueryCount 2
par MultiCell.server.ipv4.igmp lastMemberQueryInterval 1s
attr unit s
par MultiCell.server.ipv4.igmp lastMemberQueryCount 2
par MultiCell.server.ipv4.igmp unsolicitedReportInterval 10s
attr unit s
par MultiCell.server.ipv4.icmp typename "\"inet.networklayer.ipv4.Icmp\""
par MultiCell.server.ipv4.icmp interfaceTableModule "\"MultiCell.server.interfaceTable\""
par MultiCell.server.ipv4.icmp routingTableModule "\"MultiCell.server.ipv4.routingTable\""
par MultiCell.server.ipv4.icmp crcMode "\"declared\""
attr enum declared,computed
attr mutable ""
par MultiCell.server.ipv4.icmp quoteLength 8B
attr mutable ""
attr unit B
par MultiCell.server.ipv4.mp typename "\"inet.common.MessageDispatcher\""
par MultiCell.server.ipv4.mp displayStringTextFormat "\"processed %p pk (%l)\""
par MultiCell.server.ipv4.mp forwardServiceRegistration true
par MultiCell.server.ipv4.mp forwardProtocolRegistration true
par MultiCell.server.ipv4.ip typename "\"inet.networklayer.ipv4.Ipv4\""
par MultiCell.server.ipv4.ip interfaceTableModule "\"MultiCell.server.interfaceTable\""
par MultiCell.server.ipv4.ip routingTableModule "\"MultiCell.server.ipv4.routingTable\""
par MultiCell.server.ipv4.ip arpModule "\"MultiCell.server.ipv4.arp\""
par MultiCell.server.ipv4.ip icmpModule "\"MultiCell.server.ipv4.icmp\""
par MultiCell.server.ipv4.ip crcMode "\"declared\""
attr enum declared,computed
par MultiCell.server.ipv4.ip timeToLive 32
par MultiCell.server.ipv4.ip multicastTimeToLive 32
par MultiCell.server.ipv4.ip fragmentTimeout 60s
attr unit s
par MultiCell.server.ipv4.ip limitedBroadcast false
par MultiCell.server.ipv4.ip directBroadcastInterfaces "\"\""
scalar MultiCell.server.ipv4.ip packetDropAddressResolutionFailed:count 0
attr interpolationmode none
attr recordingmode count
attr source packetDropReasonIsAddressResolutionFailed(packetDropped)
attr title "packet drop: address resolution failed, count"
scalar MultiCell.server.ipv4.ip packetDropAddressResolutionFailed:sum(packetBytes) 0
attr interpolationmode none
attr recordingmode sum(packetBytes)
attr source packetDropReasonIsAddressResolutionFailed(packetDropped)
attr title "packet drop: address resolution failed, sum(packetBytes)"
scalar MultiCell.server.ipv4.ip packetDropHopLimitReached:count 0
attr interpolationmode none
attr recordingmode count
attr source packetDropReasonIsHopLimitReached(packetDropped)
attr title "packet drop: hop limit reached, count"
scalar MultiCell.server.ipv4.ip packetDropHopLimitReached:sum(packetBytes) 0
attr interpolationmode none
attr recordingmode sum(packetBytes)
attr source packetDropReasonIsHopLimitReached(packetDropped)
attr title "packet drop: hop limit reached, sum(packetBytes)"
scalar MultiCell.server.ipv4.ip packetDropForwardingDisabled:count 0
attr interpolationmode none
attr recordingmode count
attr source packetDropReasonIsForwardingDisabled(packetDropped)
attr title "packet drop: forwarding disabled, count"
scalar MultiCell.server.ipv4.ip packetDropForwardingDisabled:sum(packetBytes) 0
attr interpolationmode none
attr recordingmode sum(packetBytes)
attr source packetDropReasonIsForwardingDisabled(packetDropped)
attr title "packet drop: forwarding disabled, sum(packetBytes)"
scalar MultiCell.server.ipv4.ip packetDropNoInterfaceFound:count 0
attr interpolationmode none
attr recordingmode count
attr source packetDropReasonIsNoInterfaceFound(packetDropped)
attr title "packet drop: no interface found, count"
scalar MultiCell.server.ipv4.ip packetDropNoInterfaceFound:sum(packetBytes) 0
attr interpolationmode none
attr recordingmode sum(packetBytes)
attr source packetDropReasonIsNoInterfaceFound(packetDropped)
attr title "packet drop: no interface found, sum(packetBytes)"
scalar MultiCell.server.ipv4.ip packetDropNoRouteFound:count 0
attr interpolationmode none
attr recordingmode count
attr source packetDropReasonIsNoRouteFound(packetDropped)
attr title "packet drop: no route found, count"
scalar MultiCell.server.ipv4.ip packetDropNoRouteFound:sum(packetBytes) 0
attr interpolationmode none
attr recordingmode sum(packetBytes)
attr source packetDropReasonIsNoRouteFound(packetDropped)
attr title "packet drop: no route found, sum(packetBytes)"
scalar MultiCell.server.ipv4.ip packetDropUndefined:count 0
attr interpolationmode none
attr recordingmode count
attr source packetDropReasonIsUndefined(packetDropped)
attr title "packet drop: undefined, count"
scalar MultiCell.server.ipv4.ip packetDropUndefined:sum(packetBytes) 0
attr interpolationmode none
attr recordingmode sum(packetBytes)
attr source packetDropReasonIsUndefined(packetDropped)
attr title "packet drop: undefined, sum(packetBytes)"
par MultiCell.server.ipv4.arp typename "\"inet.networklayer.arp.ipv4.Arp\""
par MultiCell.server.ipv4.arp interfaceTableModule "\"MultiCell.server.interfaceTable\""
par MultiCell.server.ipv4.arp routingTableModule "\"MultiCell.server.ipv4.routingTable\""
par MultiCell.server.ipv4.arp retryTimeout 1s
attr unit s
par MultiCell.server.ipv4.arp retryCount 3
par MultiCell.server.ipv4.arp cacheTimeout 120s
attr unit s
par MultiCell.server.ipv4.arp proxyArpInterfaces "\"\""
scalar MultiCell.server.ipv4.arp arpReplySent:count 0
attr recordingmode count
attr source arpReplySent
attr title "ARP replies sent, count"
scalar MultiCell.server.ipv4.arp arpReplySent:sum(packetBytes) 0
attr recordingmode sum(packetBytes)
attr source arpReplySent
attr title "ARP replies sent, sum(packetBytes)"
scalar MultiCell.server.ipv4.arp arpRequestSent:count 0
attr recordingmode count
attr source arpRequestSent
attr title "ARP request sent, count"
scalar MultiCell.server.ipv4.arp arpRequestSent:sum(packetBytes) 0
attr recordingmode sum(packetBytes)
attr source arpRequestSent
attr title "ARP request sent, sum(packetBytes)"
scalar MultiCell.server.ipv4.arp arpResolutionFailed:count 0
attr recordingmode count
attr title "ARP failed resolutions, count"
scalar MultiCell.server.ipv4.arp arpResolutionCompleted:count 0
attr recordingmode count
attr title "ARP completed resolutions, count"
scalar MultiCell.server.ipv4.arp arpResolutionInitiated:count 0
attr recordingmode count
attr title "ARP initiated resolutions, count"
par MultiCell.server.ipv4.lp typename "\"inet.common.MessageDispatcher\""
par MultiCell.server.ipv4.lp displayStringTextFormat "\"processed %p pk (%l)\""
par MultiCell.server.ipv4.lp forwardServiceRegistration true
par MultiCell.server.ipv4.lp forwardProtocolRegistration true
par MultiCell.server.ipv4 typename "\"inet.networklayer.ipv4.Ipv4NetworkLayer\""
par MultiCell.server.ipv4 forwarding false
par MultiCell.server.ipv4 multicastForwarding false
par MultiCell.server.ipv4 interfaceTableModule "\"MultiCell.server.interfaceTable\""
par MultiCell.server.ipv4 displayStringTextFormat "\"%i\""
par MultiCell.server.nl typename "\"inet.common.MessageDispatcher\""
par MultiCell.server.nl displayStringTextFormat "\"processed %p pk (%l)\""
par MultiCell.server.nl forwardServiceRegistration true
par MultiCell.server.nl forwardProtocolRegistration true
par MultiCell.server.udp typename "\"inet.transportlayer.udp.Udp\""
par MultiCell.server.udp interfaceTableModule "\"MultiCell.server.interfaceTable\""
par MultiCell.server.udp icmpModule "\"^.ipv4.icmp\""
par MultiCell.server.udp icmpv6Module "\"^.ipv6.icmpv6\""
par MultiCell.server.udp crcMode "\"declared\""
attr enum disabled,declared,computed
par MultiCell.server.udp defaultMulticastLoop true
scalar MultiCell.server.udp packetReceived:count 0
attr interpolationmode none
attr recordingmode count
attr source packetReceived
attr title "packets received, count"
scalar MultiCell.server.udp packetReceived:sum(packetBytes) 0
attr interpolationmode none
attr recordingmode sum(packetBytes)
attr source packetReceived
attr title "packets received, sum(packetBytes)"
scalar MultiCell.server.udp packetSent:count 1
attr interpolationmode none
attr recordingmode count
attr source packetSent
attr title "packets sent, count"
scalar MultiCell.server.udp packetSent:sum(packetBytes) 48
attr interpolationmode none
attr recordingmode sum(packetBytes)
attr source packetSent
attr title "packets sent, sum(packetBytes)"
scalar MultiCell.server.udp passedUpPk:count 0
attr interpolationmode none
attr recordingmode count
attr source packetSentToUpper
attr title "packets passed up, count"
scalar MultiCell.server.udp droppedPkWrongPort:count 0
attr interpolationmode none
attr recordingmode count
attr source packetDropReasonIsNoPortFound(packetDropped)
attr title "packets dropped (wrong port), count"
scalar MultiCell.server.udp droppedPkBadChecksum:count 0
attr interpolationmode none
attr recordingmode count
attr source packetDropReasonIsIncorrectlyReceived(packetDropped)
attr title "packets dropped (checksum error), count"
par MultiCell.server.tcp typename "\"inet.transportlayer.tcp.Tcp\""
par MultiCell.server.tcp crcMode "\"declared\""
attr enum declared,computed
par MultiCell.server.tcp advertisedWindow 7504
par MultiCell.server.tcp delayedAcksEnabled false
par MultiCell.server.tcp nagleEnabled true
par MultiCell.server.tcp limitedTransmitEnabled false
par MultiCell.server.tcp increasedIWEnabled false
par MultiCell.server.tcp sackSupport false
par MultiCell.server.tcp windowScalingSupport false
par MultiCell.server.tcp windowScalingFactor -1
par MultiCell.server.tcp timestampSupport false
par MultiCell.server.tcp mss 536
par MultiCell.server.tcp msl 120s
attr unit s
par MultiCell.server.tcp tcpAlgorithmClass "\"TcpReno\""
par MultiCell.server.tcp useDataNotification false
par MultiCell.server.tcp dupthresh 3
par MultiCell.server.tcp initialSsthresh 4294967295
par MultiCell.server.tcp stopOperationExtraTime 0s
attr unit s
par MultiCell.server.tcp stopOperationTimeout 2s
attr unit s
par MultiCell.server.tcp ecnWillingness false
par MultiCell.server.tcp dctcpGamma 0.0625
par MultiCell.server.tn typename "\"inet.common.MessageDispatcher\""
par MultiCell.server.tn displayStringTextFormat "\"processed %p pk (%l)\""
par MultiCell.server.tn forwardServiceRegistration true
par MultiCell.server.tn forwardProtocolRegistration true
par MultiCell.server.app[0] typename "\"simu5g.apps.voip.VoIPSender\""
par MultiCell.server.app[0] localPort 3088
par MultiCell.server.app[0] destPort 3000
par MultiCell.server.app[0] destAddress "\"ue[0]\""
par MultiCell.server.app[0] PacketSize 40
par MultiCell.server.app[0] shape_talk 0.824
par MultiCell.server.app[0] scale_talk 1.423
par MultiCell.server.app[0] shape_sil 1.089
par MultiCell.server.app[0] scale_sil 0.899
par MultiCell.server.app[0] is_talk true
par MultiCell.server.app[0] sampling_time 0.02s
attr unit s
par MultiCell.server.app[0] startTime 0.0106372s
attr unit s
par MultiCell.server.app[0] silences true
par MultiCell.server.app[0] tos -1
scalar MultiCell.server.app[0] voIPGeneratedThroughput:mean 3760.3944989257
attr recordingmode mean
attr source voIPGeneratedThroughput
attr title "Throughput generated by the application, mean"
attr unit Bps
par MultiCell.server.at typename "\"inet.common.MessageDispatcher\""
par MultiCell.server.at displayStringTextFormat "\"processed %p pk (%l)\""
par MultiCell.server.at forwardServiceRegistration true
par MultiCell.server.at forwardProtocolRegistration true
par MultiCell.server typename "\"inet.node.inet.StandardHost\""
par MultiCell.server hasStatus false
par MultiCell.server osgModel "\"\""
par MultiCell.server osgModelColor "\"\""
par MultiCell.server canvasImage "\"\""
par MultiCell.server canvasImageColor "\"\""
par MultiCell.server recordPcap false
par MultiCell.server numPcapRecorders 0
par MultiCell.server numLoInterfaces 1
par MultiCell.server numWlanInterfaces 0
par MultiCell.server numEthInterfaces 0
par MultiCell.server numPppInterfaces 0
par MultiCell.server numTunInterfaces 0
par MultiCell.server numVirtInterfaces 0
par MultiCell.server fcsMode "\"declared\""
attr enum declared,computed
par MultiCell.server hasIpv4 true
par MultiCell.server hasIpv6 false
par MultiCell.server hasGn false
par MultiCell.server forwarding false
par MultiCell.server multicastForwarding false
par MultiCell.server hasUdp true
par MultiCell.server hasTcp true
par MultiCell.server hasSctp false
par MultiCell.server numApps 1
par MultiCell.router.pppg$i[0].channel typename "\"ned.IdealChannel\""
par MultiCell.router.ppp[0].phys$o.channel typename "\"ned.IdealChannel\""
par MultiCell.router.pppg$i[1].channel typename "\"ned.IdealChannel\""
par MultiCell.router.ppp[1].phys$o.channel typename "\"ned.IdealChannel\""
par MultiCell.router.interfaceTable typename "\"inet.networklayer.common.InterfaceTable\""
par MultiCell.router.interfaceTable displayAddresses false
par MultiCell.router.cb typename "\"inet.common.MessageDispatcher\""
par MultiCell.router.cb displayStringTextFormat "\"processed %p pk (%l)\""
par MultiCell.router.cb forwardServiceRegistration true
par MultiCell.router.cb forwardProtocolRegistration true
par MultiCell.router.bl typename "\"inet.common.MessageDispatcher\""
par MultiCell.router.bl displayStringTextFormat "\"processed %p pk (%l)\""
par MultiCell.router.bl forwardServiceRegistration true
par MultiCell.router.bl forwardProtocolRegistration true
par MultiCell.router.li typename "\"inet.common.MessageDispatcher\""
par MultiCell.router.li displayStringTextFormat "\"processed %p pk (%l)\""
par MultiCell.router.li forwardServiceRegistration true
par MultiCell.router.li forwardProtocolRegistration true
par MultiCell.router.lo[0].upperLayerIn.channel typename "\"ned.IdealChannel\""
par MultiCell.router.lo[0].lo.upperLayerOut.channel typename "\"ned.IdealChannel\""
par MultiCell.router.lo[0].lo typename "\"inet.linklayer.loopback.Loopback\""
par MultiCell.router.lo[0].lo interfaceTableModule "\"MultiCell.router.interfaceTable\""
par MultiCell.router.lo[0].lo mtu 4470B
attr unit B
scalar MultiCell.router.lo[0].lo rcvdPkFromHl:count 0
attr interpolationmode none
attr recordingmode count
attr source packetReceivedFromUpper
attr title "packets received from higher layer, count"
scalar MultiCell.router.lo[0].lo rcvdPkFromHl:sum(packetBytes) 0
attr interpolationmode none
attr recordingmode sum(packetBytes)
attr source packetReceivedFromUpper
attr title "packets received from higher layer, sum(packetBytes)"
scalar MultiCell.router.lo[0].lo passedUpPk:count 0
attr interpolationmode none
attr recordingmode count
attr source packetSentToUpper
attr title "packets passed to higher layer, count"
scalar MultiCell.router.lo[0].lo passedUpPk:sum(packetBytes) 0
attr interpolationmode none
attr recordingmode sum(packetBytes)
attr source packetSentToUpper
attr title "packets passed to higher layer, sum(packetBytes)"
par MultiCell.router.lo[0] typename "\"inet.linklayer.loopback.LoopbackInterface\""
par MultiCell.router.lo[0] displayStringTextFormat "\"%a (%i)\\n%m\""
par MultiCell.router.lo[0] recordPcap false
par MultiCell.router.lo[0] numPcapRecorders 0
par MultiCell.router.lo[0] interfaceTableModule "\"MultiCell.router.interfaceTable\""
scalar MultiCell.router.lo[0] packetDropInterfaceDown:count 0
attr interpolationmode none
attr recordingmode count
attr source packetDropReasonIsInterfaceDown(packetDropped)
attr title "packet drops: interface down, count"
scalar MultiCell.router.lo[0] packetDropInterfaceDown:sum(packetBytes) 0
attr interpolationmode none
attr recordingmode sum(packetBytes)
attr source packetDropReasonIsInterfaceDown(packetDropped)
attr title "packet drops: interface down, sum(packetBytes)"
scalar MultiCell.router.lo[0] packetDropNoCarrier:count 0
attr interpolationmode none
attr recordingmode count
attr source packetDropReasonIsNoCarrier(packetDropped)
attr title "packet drops: no carrier, count"
scalar MultiCell.router.lo[0] packetDropNoCarrier:sum(packetBytes) 0
attr interpolationmode none
attr recordingmode sum(packetBytes)
attr source packetDropReasonIsNoCarrier(packetDropped)
attr title "packet drops: no carrier, sum(packetBytes)"
par MultiCell.router.ppp[0].phys$i.channel typename "\"ned.IdealChannel\""
par MultiCell.router.ppp[0].ppp.phys$o.channel typename "\"ned.IdealChannel\""
par MultiCell.router.ppp[0].ppp.upperLayerOut.channel typename "\"ned.IdealChannel\""
par MultiCell.router.ppp[0].upperLayerIn.channel typename "\"ned.IdealChannel\""
par MultiCell.router.ppp[0].queue typename "\"inet.queueing.queue.DropTailQueue\""
par MultiCell.router.ppp[0].queue displayStringTextFormat "\"contains %p pk (%l) pushed %u\\npulled %o removed %r dropped %d\""
par MultiCell.router.ppp[0].queue packetCapacity 10000
par MultiCell.router.ppp[0].queue dataCapacity -1b
attr unit b
par MultiCell.router.ppp[0].queue dropperClass "\"inet::queueing::PacketAtCollectionEndDropper\""
par MultiCell.router.ppp[0].queue comparatorClass "\"\""
par MultiCell.router.ppp[0].queue bufferModule "\"\""
scalar MultiCell.router.ppp[0].queue queueLength:last 0
attr autoWarmupFilter false
attr interpolationmode sample-hold
attr recordingmode last
attr source "warmup(atomic(constant0(packetPushEnded) + count(packetPushStarted) - count(packetPulled) - count(packetRemoved) - count(packetDropped)))"
attr title "queue length, last"
attr unit pk
scalar MultiCell.router.ppp[0].queue queueLength:max 0
attr autoWarmupFilter false
attr interpolationmode sample-hold
attr recordingmode max
attr source "warmup(atomic(constant0(packetPushEnded) + count(packetPushStarted) - count(packetPulled) - count(packetRemoved) - count(packetDropped)))"
attr title "queue length, max"
attr unit pk
scalar MultiCell.router.ppp[0].queue queueLength:timeavg 0
attr autoWarmupFilter false
attr interpolationmode sample-hold
attr recordingmode timeavg
attr source "warmup(atomic(constant0(packetPushEnded) + count(packetPushStarted) - count(packetPulled) - count(packetRemoved) - count(packetDropped)))"
attr title "queue length, timeavg"
attr unit pk
scalar MultiCell.router.ppp[0].queue queueBitLength:last 0
attr autoWarmupFilter false
attr interpolationmode sample-hold
attr recordingmode last
attr source "warmup(atomic(constant0(packetPushEnded) + sum(packetLength(packetPushStarted)) - sum(packetLength(packetPulled)) - sum(packetLength(packetRemoved)) - sum(packetLength(packetDropped))))"
attr title "queue bit length, last"
attr unit b
scalar MultiCell.router.ppp[0].queue queueBitLength:max 0
attr autoWarmupFilter false
attr interpolationmode sample-hold
attr recordingmode max
attr source "warmup(atomic(constant0(packetPushEnded) + sum(packetLength(packetPushStarted)) - sum(packetLength(packetPulled)) - sum(packetLength(packetRemoved)) - sum(packetLength(packetDropped))))"
attr title "queue bit length, max"
attr unit b
scalar MultiCell.router.ppp[0].queue queueBitLength:timeavg 0
attr autoWarmupFilter false
attr interpolationmode sample-hold
attr recordingmode timeavg
attr source "warmup(atomic(constant0(packetPushEnded) + sum(packetLength(packetPushStarted)) - sum(packetLength(packetPulled)) - sum(packetLength(packetRemoved)) - sum(packetLength(packetDropped))))"
attr title "queue bit length, timeavg"
attr unit b
statistic MultiCell.router.ppp[0].queue queueingTime:histogram
field count 0
field mean nan
field stddev nan
field min nan
field max nan
field sum 0
field sqrsum 0
attr interpolationmode none
attr recordingmode histogram
attr source queueingTime(packetPulled)
attr title "queueing times"
attr unit s
bin	-inf	0
bin	0	0
bin	1	0
scalar MultiCell.router.ppp[0].queue outgoingPackets:count 0
attr recordingmode count
attr source packetPulled
attr title "outgoing packets, count"
attr unit pk
scalar MultiCell.router.ppp[0].queue outgoingPacketLengths:sum 0
attr interpolationmode none
attr recordingmode sum
attr source packetLength(packetPulled)
attr title "outgoing packet lengths, sum"
attr unit b
statistic MultiCell.router.ppp[0].queue outgoingPacketLengths:histogram
field count 0
field mean nan
field stddev nan
field min nan
field max nan
field sum 0
field sqrsum 0
attr interpolationmode none
attr recordingmode histogram
attr source packetLength(packetPulled)
attr title "outgoing packet lengths"
attr unit b
bin	-inf	0
bin	0	0
bin	1	0
statistic MultiCell.router.ppp[0].queue flowQueueingTime:histogram
field count 0
field mean nan
field stddev nan
field min nan
field max nan
field sum 0
field sqrsum 0
attr interpolationmode none
attr recordingmode histogram
attr source queueingTime(demuxFlow(packetPulled))
attr title "flow queueing times"
attr unit s
bin	-inf	0
bin	0	0
bin	1	0
scalar MultiCell.router.ppp[0].queue incomingPackets:count 0
attr recordingmode count
attr source packetPushStarted
attr title "incoming packets, count"
attr unit pk
scalar MultiCell.router.ppp[0].queue incomingPacketLengths:sum 0
attr interpolationmode none
attr recordingmode sum
attr source packetLength(packetPushStarted)
attr title "incoming packet lengths, sum"
attr unit b
statistic MultiCell.router.ppp[0].queue incomingPacketLengths:histogram
field count 0
field mean nan
field stddev nan
field min nan
field max nan
field sum 0
field sqrsum 0
attr interpolationmode none
attr recordingmode histogram
attr source packetLength(packetPushStarted)
attr title "incoming packet lengths"
attr unit b
bin	-inf	0
bin	0	0
bin	1	0
scalar MultiCell.router.ppp[0].queue droppedPacketsQueueOverflow:count 0
attr interpolationmode none
attr recordingmode count
attr source packetDropReasonIsQueueOverflow(packetDropped)
attr title "dropped packets: queue overflow, count"
attr unit pk
scalar MultiCell.router.ppp[0].queue droppedPacketLengthsQueueOverflow:sum 0
attr interpolationmode none
attr recordingmode sum
attr source packetLength(packetDropReasonIsQueueOverflow(packetDropped))
attr title "dropped packet lengths: queue overflow, sum"
attr unit b
par MultiCell.router.ppp[0].ppp typename "\"inet.linklayer.ppp.Ppp\""
par MultiCell.router.ppp[0].ppp interfaceTableModule "\"MultiCell.router.interfaceTable\""
par MultiCell.router.ppp[0].ppp displayStringTextFormat "\"rate: %b\\nsent: %s, rcvd: %r\\nqueue: %q, drop: %d\""
par MultiCell.router.ppp[0].ppp sendRawBytes false
par MultiCell.router.ppp[0].ppp mtu 4470B
attr unit B
par MultiCell.router.ppp[0].ppp stopOperationExtraTime -1s
attr unit s
par MultiCell.router.ppp[0].ppp stopOperationTimeout 2s
attr unit s
scalar MultiCell.router.ppp[0].ppp txPk:count 0
attr interpolationmode none
attr recordingmode count
attr source packetSentToLower
attr title "packets transmitted, count"
scalar MultiCell.router.ppp[0].ppp txPk:sum(packetBytes) 0
attr interpolationmode none
attr recordingmode sum(packetBytes)
attr source packetSentToLower
attr title "packets transmitted, sum(packetBytes)"
scalar MultiCell.router.ppp[0].ppp rcvdPkFromHl:count 0
attr interpolationmode none
attr recordingmode count
attr source packetReceivedFromUpper
attr title "packets received from higher layer, count"
scalar MultiCell.router.ppp[0].ppp rcvdPkFromHl:sum(packetBytes) 0
attr interpolationmode none
attr recordingmode sum(packetBytes)
attr source packetReceivedFromUpper
attr title "packets received from higher layer, sum(packetBytes)"
scalar MultiCell.router.ppp[0].ppp passedUpPk:count 1
attr interpolationmode none
attr recordingmode count
attr source packetSentToUpper
attr title "packets passed to higher layer, count"
scalar MultiCell.router.ppp[0].ppp passedUpPk:sum(packetBytes) 68
attr interpolationmode none
attr recordingmode sum(packetBytes)
attr source packetSentToUpper
attr title "packets passed to higher layer, sum(packetBytes)"
scalar MultiCell.router.ppp[0].ppp packetDropIncorrectlyReceived:count 0
attr interpolationmode none
attr recordingmode count
attr source packetDropReasonIsIncorrectlyReceived(packetDropped)
attr title "packet drop: incorrectly received, count"
scalar MultiCell.router.ppp[0].ppp packetDropIncorrectlyReceived:sum(packetBytes) 0
attr interpolationmode none
attr recordingmode sum(packetBytes)
attr source packetDropReasonIsIncorrectlyReceived(packetDropped)
attr title "packet drop: incorrectly received, sum(packetBytes)"
scalar MultiCell.router.ppp[0].ppp packetDropInterfaceDown:count 0
attr interpolationmode none
attr recordingmode count
attr source packetDropReasonIsInterfaceDown(packetDropped)
attr title "packet drop: interface down, count"
scalar MultiCell.router.ppp[0].ppp packetDropInterfaceDown:sum(packetBytes) 0
attr interpolationmode none
attr recordingmode sum(packetBytes)
attr source packetDropReasonIsInterfaceDown(packetDropped)
attr title "packet drop: interface down, sum(packetBytes)"
scalar MultiCell.router.ppp[0].ppp rxPkOk:count 1
attr interpolationmode none
attr recordingmode count
attr source rxPkOk
attr title "packets received OK, count"
scalar MultiCell.router.ppp[0].ppp rxPkOk:sum(packetBytes) 75
attr interpolationmode none
attr recordingmode sum(packetBytes)
attr source rxPkOk
attr title "packets received OK, sum(packetBytes)"
scalar MultiCell.router.ppp[0].ppp transmissionState:timeavg 0
attr interpolationmode sample-hold
attr recordingmode timeavg
attr source transmissionStateChanged
attr title "tx state, timeavg"
par MultiCell.router.ppp[0] typename "\"inet.linklayer.ppp.PppInterface\""
par MultiCell.router.ppp[0] displayStringTextFormat "\"%a (%i)\\n%m\""
par MultiCell.router.ppp[0] recordPcap false
par MultiCell.router.ppp[0] numPcapRecorders 0
par MultiCell.router.ppp[0] interfaceTableModule "\"MultiCell.router.interfaceTable\""
scalar MultiCell.router.ppp[0] packetDropInterfaceDown:count 0
attr interpolationmode none
attr recordingmode count
attr source packetDropReasonIsInterfaceDown(packetDropped)
attr title "packet drops: interface down, count"
scalar MultiCell.router.ppp[0] packetDropInterfaceDown:sum(packetBytes) 0
attr interpolationmode none
attr recordingmode sum(packetBytes)
attr source packetDropReasonIsInterfaceDown(packetDropped)
attr title "packet drops: interface down, sum(packetBytes)"
scalar MultiCell.router.ppp[0] packetDropNoCarrier:count 0
attr interpolationmode none
attr recordingmode count
attr source packetDropReasonIsNoCarrier(packetDropped)
attr title "packet drops: no carrier, count"
scalar MultiCell.router.ppp[0] packetDropNoCarrier:sum(packetBytes) 0
attr interpolationmode none
attr recordingmode sum(packetBytes)
attr source packetDropReasonIsNoCarrier(packetDropped)
attr title "packet drops: no carrier, sum(packetBytes)"
par MultiCell.router.ppp[1].phys$i.channel typename "\"ned.IdealChannel\""
par MultiCell.router.ppp[1].ppp.phys$o.channel typename "\"ned.IdealChannel\""
par MultiCell.router.ppp[1].ppp.upperLayerOut.channel typename "\"ned.IdealChannel\""
par MultiCell.router.ppp[1].upperLayerIn.channel typename "\"ned.IdealChannel\""
par MultiCell.router.ppp[1].queue typename "\"inet.queueing.queue.DropTailQueue\""
par MultiCell.router.ppp[1].queue displayStringTextFormat "\"contains %p pk (%l) pushed %u\\npulled %o removed %r dropped %d\""
par MultiCell.router.ppp[1].queue packetCapacity 10000
par MultiCell.router.ppp[1].queue dataCapacity -1b
attr unit b
par MultiCell.router.ppp[1].queue dropperClass "\"inet::queueing::PacketAtCollectionEndDropper\""
par MultiCell.router.ppp[1].queue comparatorClass "\"\""
par MultiCell.router.ppp[1].queue bufferModule "\"\""
scalar MultiCell.router.ppp[1].queue queueLength:last 0
attr autoWarmupFilter false
attr interpolationmode sample-hold
attr recordingmode last
attr source "warmup(atomic(constant0(packetPushEnded) + count(packetPushStarted) - count(packetPulled) - count(packetRemoved) - count(packetDropped)))"
attr title "queue length, last"
attr unit pk
scalar MultiCell.router.ppp[1].queue queueLength:max 0
attr autoWarmupFilter false
attr interpolationmode sample-hold
attr recordingmode max
attr source "warmup(atomic(constant0(packetPushEnded) + count(packetPushStarted) - count(packetPulled) - count(packetRemoved) - count(packetDropped)))"
attr title "queue length, max"
attr unit pk
scalar MultiCell.router.ppp[1].queue queueLength:timeavg 0
attr autoWarmupFilter false
attr interpolationmode sample-hold
attr recordingmode timeavg
attr source "warmup(atomic(constant0(packetPushEnded) + count(packetPushStarted) - count(packetPulled) - count(packetRemoved) - count(packetDropped)))"
attr title "queue length, timeavg"
attr unit pk
scalar MultiCell.router.ppp[1].queue queueBitLength:last 0
attr autoWarmupFilter false
attr interpolationmode sample-hold
attr recordingmode last
attr source "warmup(atomic(constant0(packetPushEnded) + sum(packetLength(packetPushStarted)) - sum(packetLength(packetPulled)) - sum(packetLength(packetRemoved)) - sum(packetLength(packetDropped))))"
attr title "queue bit length, last"
attr unit b
scalar MultiCell.router.ppp[1].queue queueBitLength:max 0
attr autoWarmupFilter false
attr interpolationmode sample-hold
attr recordingmode max
attr source "warmup(atomic(constant0(packetPushEnded) + sum(packetLength(packetPushStarted)) - sum(packetLength(packetPulled)) - sum(packetLength(packetRemoved)) - sum(packetLength(packetDropped))))"
attr title "queue bit length, max"
attr unit b
scalar MultiCell.router.ppp[1].queue queueBitLength:timeavg 0
attr autoWarmupFilter false
attr interpolationmode sample-hold
attr recordingmode timeavg
attr source "warmup(atomic(constant0(packetPushEnded) + sum(packetLength(packetPushStarted)) - sum(packetLength(packetPulled)) - sum(packetLength(packetRemoved)) - sum(packetLength(packetDropped))))"
attr title "queue bit length, timeavg"
attr unit b
statistic MultiCell.router.ppp[1].queue queueingTime:histogram
field count 1
field mean 0
field stddev nan
field min 0
field max 0
field sum 0
field sqrsum 0
attr interpolationmode none
attr recordingmode histogram
attr source queueingTime(packetPulled)
attr title "queueing times"
attr unit s
bin	-inf	0
bin	-0.5	0
bin	-0.48	0
bin	-0.46	0
bin	-0.44	0
bin	-0.42	0
bin	-0.4	0
bin	-0.38	0
bin	-0.36	0
bin	-0.34	0
bin	-0.32	0
bin	-0.3	0
bin	-0.28	0
bin	-0.26	0
bin	-0.24	0
bin	-0.22	0
bin	-0.2	0
bin	-0.18	0
bin	-0.16	0
bin	-0.14	0
bin	-0.12	0
bin	-0.1	0
bin	-0.08	0
bin	-0.06	0
bin	-0.04	0
bin	-0.02	0
bin	0	1
bin	0.02	0
bin	0.04	0
bin	0.06	0
bin	0.08	0
bin	0.1	0
bin	0.12	0
bin	0.14	0
bin	0.16	0
bin	0.18	0
bin	0.2	0
bin	0.22	0
bin	0.24	0
bin	0.26	0
bin	0.28	0
bin	0.3	0
bin	0.32	0
bin	0.34	0
bin	0.36	0
bin	0.38	0
bin	0.4	0
bin	0.42	0
bin	0.44	0
bin	0.46	0
bin	0.48	0
bin	0.5	0
scalar MultiCell.router.ppp[1].queue outgoingPackets:count 1
attr recordingmode count
attr source packetPulled
attr title "outgoing packets, count"
attr unit pk
scalar MultiCell.router.ppp[1].queue outgoingPacketLengths:sum 544
attr interpolationmode none
attr recordingmode sum
attr source packetLength(packetPulled)
attr title "outgoing packet lengths, sum"
attr unit b
statistic MultiCell.router.ppp[1].queue outgoingPacketLengths:histogram
field count 1
field mean 544
field stddev nan
field min 544
field max 544
field sum 544
field sqrsum 295936
attr interpolationmode none
attr recordingmode histogram
attr source packetLength(packetPulled)
attr title "outgoing packet lengths"
attr unit b
bin	-inf	0
bin	543	0
bin	544	1
bin	545	0
statistic MultiCell.router.ppp[1].queue flowQueueingTime:histogram
field count 0
field mean nan
field stddev nan
field min nan
field max nan
field sum 0
field sqrsum 0
attr interpolationmode none
attr recordingmode histogram
attr source queueingTime(demuxFlow(packetPulled))
attr title "flow queueing times"
attr unit s
bin	-inf	0
bin	0	0
bin	1	0
scalar MultiCell.router.ppp[1].queue incomingPackets:count 1
attr recordingmode count
attr source packetPushStarted
attr title "incoming packets, count"
attr unit pk
scalar MultiCell.router.ppp[1].queue incomingPacketLengths:sum 544
attr interpolationmode none
attr recordingmode sum
attr source packetLength(packetPushStarted)
attr title "incoming packet lengths, sum"
attr unit b
statistic MultiCell.router.ppp[1].queue incomingPacketLengths:histogram
field count 1
field mean 544
field stddev nan
field min 544
field max 544
field sum 544
field sqrsum 295936
attr interpolationmode none
attr recordingmode histogram
attr source packetLength(packetPushStarted)
attr title "incoming packet lengths"
attr unit b
bin	-inf	0
bin	543	0
bin	544	1
bin	545	0
scalar MultiCell.router.ppp[1].queue droppedPacketsQueueOverflow:count 0
attr interpolationmode none
attr recordingmode count
attr source packetDropReasonIsQueueOverflow(packetDropped)
attr title "dropped packets: queue overflow, count"
attr unit pk
scalar MultiCell.router.ppp[1].queue droppedPacketLengthsQueueOverflow:sum 0
attr interpolationmode none
attr recordingmode sum
attr source packetLength(packetDropReasonIsQueueOverflow(packetDropped))
attr title "dropped packet lengths: queue overflow, sum"
attr unit b
par MultiCell.router.ppp[1].ppp typename "\"inet.linklayer.ppp.Ppp\""
par MultiCell.router.ppp[1].ppp interfaceTableModule "\"MultiCell.router.interfaceTable\""
par MultiCell.router.ppp[1].ppp displayStringTextFormat "\"rate: %b\\nsent: %s, rcvd: %r\\nqueue: %q, drop: %d\""
par MultiCell.router.ppp[1].ppp sendRawBytes false
par MultiCell.router.ppp[1].ppp mtu 4470B
attr unit B
par MultiCell.router.ppp[1].ppp stopOperationExtraTime -1s
attr unit s
par MultiCell.router.ppp[1].ppp stopOperationTimeout 2s
attr unit s
scalar MultiCell.router.ppp[1].ppp txPk:count 1
attr interpolationmode none
attr recordingmode count
attr source packetSentToLower
attr title "packets transmitted, count"
scalar MultiCell.router.ppp[1].ppp txPk:sum(packetBytes) 75
attr interpolationmode none
attr recordingmode sum(packetBytes)
attr source packetSentToLower
attr title "packets transmitted, sum(packetBytes)"
scalar MultiCell.router.ppp[1].ppp rcvdPkFromHl:count 1
attr interpolationmode none
attr recordingmode count
attr source packetReceivedFromUpper
attr title "packets received from higher layer, count"
scalar MultiCell.router.ppp[1].ppp rcvdPkFromHl:sum(packetBytes) 68
attr interpolationmode none
attr recordingmode sum(packetBytes)
attr source packetReceivedFromUpper
attr title "packets received from higher layer, sum(packetBytes)"
scalar MultiCell.router.ppp[1].ppp passedUpPk:count 0
attr interpolationmode none
attr recordingmode count
attr source packetSentToUpper
attr title "packets passed to higher layer, count"
scalar MultiCell.router.ppp[1].ppp passedUpPk:sum(packetBytes) 0
attr interpolationmode none
attr recordingmode sum(packetBytes)
attr source packetSentToUpper
attr title "packets passed to higher layer, sum(packetBytes)"
scalar MultiCell.router.ppp[1].ppp packetDropIncorrectlyReceived:count 0
attr interpolationmode none
attr recordingmode count
attr source packetDropReasonIsIncorrectlyReceived(packetDropped)
attr title "packet drop: incorrectly received, count"
scalar MultiCell.router.ppp[1].ppp packetDropIncorrectlyReceived:sum(packetBytes) 0
attr interpolationmode none
attr recordingmode sum(packetBytes)
attr source packetDropReasonIsIncorrectlyReceived(packetDropped)
attr title "packet drop: incorrectly received, sum(packetBytes)"
scalar MultiCell.router.ppp[1].ppp packetDropInterfaceDown:count 0
attr interpolationmode none
attr recordingmode count
attr source packetDropReasonIsInterfaceDown(packetDropped)
attr title "packet drop: interface down, count"
scalar MultiCell.router.ppp[1].ppp packetDropInterfaceDown:sum(packetBytes) 0
attr interpolationmode none
attr recordingmode sum(packetBytes)
attr source packetDropReasonIsInterfaceDown(packetDropped)
attr title "packet drop: interface down, sum(packetBytes)"
scalar MultiCell.router.ppp[1].ppp rxPkOk:count 0
attr interpolationmode none
attr recordingmode count
attr source rxPkOk
attr title "packets received OK, count"
scalar MultiCell.router.ppp[1].ppp rxPkOk:sum(packetBytes) 0
attr interpolationmode none
attr recordingmode sum(packetBytes)
attr source rxPkOk
attr title "packets received OK, sum(packetBytes)"
scalar MultiCell.router.ppp[1].ppp transmissionState:timeavg 3e-06
attr interpolationmode sample-hold
attr recordingmode timeavg
attr source transmissionStateChanged
attr title "tx state, timeavg"
par MultiCell.router.ppp[1] typename "\"inet.linklayer.ppp.PppInterface\""
par MultiCell.router.ppp[1] displayStringTextFormat "\"%a (%i)\\n%m\""
par MultiCell.router.ppp[1] recordPcap false
par MultiCell.router.ppp[1] numPcapRecorders 0
par MultiCell.router.ppp[1] interfaceTableModule "\"MultiCell.router.interfaceTable\""
scalar MultiCell.router.ppp[1] packetDropInterfaceDown:count 0
attr interpolationmode none
attr recordingmode count
attr source packetDropReasonIsInterfaceDown(packetDropped)
attr title "packet drops: interface down, count"
scalar MultiCell.router.ppp[1] packetDropInterfaceDown:sum(packetBytes) 0
attr interpolationmode none
attr recordingmode sum(packetBytes)
attr source packetDropReasonIsInterfaceDown(packetDropped)
attr title "packet drops: interface down, sum(packetBytes)"
scalar MultiCell.router.ppp[1] packetDropNoCarrier:count 0
attr interpolationmode none
attr recordingmode count
attr source packetDropReasonIsNoCarrier(packetDropped)
attr title "packet drops: no carrier, count"
scalar MultiCell.router.ppp[1] packetDropNoCarrier:sum(packetBytes) 0
attr interpolationmode none
attr recordingmode sum(packetBytes)
attr source packetDropReasonIsNoCarrier(packetDropped)
attr title "packet drops: no carrier, sum(packetBytes)"
par MultiCell.router.ipv4.transportIn.channel typename "\"ned.IdealChannel\""
par MultiCell.router.ipv4.up.out[0].channel typename "\"ned.IdealChannel\""
par MultiCell.router.ipv4.lp.out[2].channel typename "\"ned.IdealChannel\""
par MultiCell.router.ipv4.ifIn.channel typename "\"ned.IdealChannel\""
par MultiCell.router.ipv4.configurator typename "\"inet.networklayer.configurator.ipv4.Ipv4NodeConfigurator\""
par MultiCell.router.ipv4.configurator interfaceTableModule "\"MultiCell.router.interfaceTable\""
par MultiCell.router.ipv4.configurator routingTableModule "\"MultiCell.router.ipv4.routingTable\""
par MultiCell.router.ipv4.configurator networkConfiguratorModule "\"configurator\""
par MultiCell.router.ipv4.configurator configureRoutingTable true
par MultiCell.router.ipv4.routingTable typename "\"inet.networklayer.ipv4.Ipv4RoutingTable\""
par MultiCell.router.ipv4.routingTable interfaceTableModule "\"MultiCell.router.interfaceTable\""
par MultiCell.router.ipv4.routingTable routerId "\"auto\""
par MultiCell.router.ipv4.routingTable netmaskRoutes "\"*\""
par MultiCell.router.ipv4.routingTable forwarding true
par MultiCell.router.ipv4.routingTable multicastForwarding false
par MultiCell.router.ipv4.routingTable useAdminDist false
par MultiCell.router.ipv4.routingTable routingFile "\"\""
par MultiCell.router.ipv4.natTable typename "\"inet.networklayer.ipv4.Ipv4NatTable\""
par MultiCell.router.ipv4.natTable networkProtocolModule "\"^.ip\""
par MultiCell.router.ipv4.natTable config "<config/> at content:1"
par MultiCell.router.ipv4.up typename "\"inet.common.MessageDispatcher\""
par MultiCell.router.ipv4.up displayStringTextFormat "\"processed %p pk (%l)\""
par MultiCell.router.ipv4.up forwardServiceRegistration true
par MultiCell.router.ipv4.up forwardProtocolRegistration true
par MultiCell.router.ipv4.igmp typename "\"inet.networklayer.ipv4.Igmpv2\""
par MultiCell.router.ipv4.igmp interfaceTableModule "\"MultiCell.router.interfaceTable\""
par MultiCell.router.ipv4.igmp routingTableModule "\"MultiCell.router.ipv4.routingTable\""
par MultiCell.router.ipv4.igmp crcMode "\"declared\""
attr enum declared,computed
par MultiCell.router.ipv4.igmp enabled true
par MultiCell.router.ipv4.igmp robustnessVariable 2
par MultiCell.router.ipv4.igmp queryInterval 125s
attr unit s
par MultiCell.router.ipv4.igmp queryResponseInterval 10s
attr unit s
par MultiCell.router.ipv4.igmp groupMembershipInterval 260s
attr unit s
par MultiCell.router.ipv4.igmp otherQuerierPresentInterval 255s
attr unit s
par MultiCell.router.ipv4.igmp startupQueryInterval 31.25s
attr unit s
par MultiCell.router.ipv4.igmp startupQueryCount 2
par MultiCell.router.ipv4.igmp lastMemberQueryInterval 1s
attr unit s
par MultiCell.router.ipv4.igmp lastMemberQueryCount 2
par MultiCell.router.ipv4.igmp unsolicitedReportInterval 10s
attr unit s
par MultiCell.router.ipv4.icmp typename "\"inet.networklayer.ipv4.Icmp\""
par MultiCell.router.ipv4.icmp interfaceTableModule "\"MultiCell.router.interfaceTable\""
par MultiCell.router.ipv4.icmp routingTableModule "\"MultiCell.router.ipv4.routingTable\""
par MultiCell.router.ipv4.icmp crcMode "\"declared\""
attr enum declared,computed
attr mutable ""
par MultiCell.router.ipv4.icmp quoteLength 8B
attr mutable ""
attr unit B
par MultiCell.router.ipv4.mp typename "\"inet.common.MessageDispatcher\""
par MultiCell.router.ipv4.mp displayStringTextFormat "\"processed %p pk (%l)\""
par MultiCell.router.ipv4.mp forwardServiceRegistration true
par MultiCell.router.ipv4.mp forwardProtocolRegistration true
par MultiCell.router.ipv4.ip typename "\"inet.networklayer.ipv4.Ipv4\""
par MultiCell.router.ipv4.ip interfaceTableModule "\"MultiCell.router.interfaceTable\""
par MultiCell.router.ipv4.ip routingTableModule "\"MultiCell.router.ipv4.routingTable\""
par MultiCell.router.ipv4.ip arpModule "\"MultiCell.router.ipv4.arp\""
par MultiCell.router.ipv4.ip icmpModule "\"MultiCell.router.ipv4.icmp\""
par MultiCell.router.ipv4.ip crcMode "\"declared\""
attr enum declared,computed
par MultiCell.router.ipv4.ip timeToLive 32
par MultiCell.router.ipv4.ip multicastTimeToLive 32
par MultiCell.router.ipv4.ip fragmentTimeout 60s
attr unit s
par MultiCell.router.ipv4.ip limitedBroadcast false
par MultiCell.router.ipv4.ip directBroadcastInterfaces "\"\""
scalar MultiCell.router.ipv4.ip packetDropAddressResolutionFailed:count 0
attr interpolationmode none
attr recordingmode count
attr source packetDropReasonIsAddressResolutionFailed(packetDropped)
attr title "packet drop: address resolution failed, count"
scalar MultiCell.router.ipv4.ip packetDropAddressResolutionFailed:sum(packetBytes) 0
attr interpolationmode none
attr recordingmode sum(packetBytes)
attr source packetDropReasonIsAddressResolutionFailed(packetDropped)
attr title "packet drop: address resolution failed, sum(packetBytes)"
scalar MultiCell.router.ipv4.ip packetDropHopLimitReached:count 0
attr interpolationmode none
attr recordingmode count
attr source packetDropReasonIsHopLimitReached(packetDropped)
attr title "packet drop: hop limit reached, count"
scalar MultiCell.router.ipv4.ip packetDropHopLimitReached:sum(packetBytes) 0
attr interpolationmode none
attr recordingmode sum(packetBytes)
attr source packetDropReasonIsHopLimitReached(packetDropped)
attr title "packet drop: hop limit reached, sum(packetBytes)"
scalar MultiCell.router.ipv4.ip packetDropForwardingDisabled:count 0
attr interpolationmode none
attr recordingmode count
attr source packetDropReasonIsForwardingDisabled(packetDropped)
attr title "packet drop: forwarding disabled, count"
scalar MultiCell.router.ipv4.ip packetDropForwardingDisabled:sum(packetBytes) 0
attr interpolationmode none
attr recordingmode sum(packetBytes)
attr source packetDropReasonIsForwardingDisabled(packetDropped)
attr title "packet drop: forwarding disabled, sum(packetBytes)"
scalar MultiCell.router.ipv4.ip packetDropNoInterfaceFound:count 0
attr interpolationmode none
attr recordingmode count
attr source packetDropReasonIsNoInterfaceFound(packetDropped)
attr title "packet drop: no interface found, count"
scalar MultiCell.router.ipv4.ip packetDropNoInterfaceFound:sum(packetBytes) 0
attr interpolationmode none
attr recordingmode sum(packetBytes)
attr source packetDropReasonIsNoInterfaceFound(packetDropped)
attr title "packet drop: no interface found, sum(packetBytes)"
scalar MultiCell.router.ipv4.ip packetDropNoRouteFound:count 0
attr interpolationmode none
attr recordingmode count
attr source packetDropReasonIsNoRouteFound(packetDropped)
attr title "packet drop: no route found, count"
scalar MultiCell.router.ipv4.ip packetDropNoRouteFound:sum(packetBytes) 0
attr interpolationmode none
attr recordingmode sum(packetBytes)
attr source packetDropReasonIsNoRouteFound(packetDropped)
attr title "packet drop: no route found, sum(packetBytes)"
scalar MultiCell.router.ipv4.ip packetDropUndefined:count 0
attr interpolationmode none
attr recordingmode count
attr source packetDropReasonIsUndefined(packetDropped)
attr title "packet drop: undefined, count"
scalar MultiCell.router.ipv4.ip packetDropUndefined:sum(packetBytes) 0
attr interpolationmode none
attr recordingmode sum(packetBytes)
attr source packetDropReasonIsUndefined(packetDropped)
attr title "packet drop: undefined, sum(packetBytes)"
par MultiCell.router.ipv4.arp typename "\"inet.networklayer.arp.ipv4.Arp\""
par MultiCell.router.ipv4.arp interfaceTableModule "\"MultiCell.router.interfaceTable\""
par MultiCell.router.ipv4.arp routingTableModule "\"MultiCell.router.ipv4.routingTable\""
par MultiCell.router.ipv4.arp retryTimeout 1s
attr unit s
par MultiCell.router.ipv4.arp retryCount 3
par MultiCell.router.ipv4.arp cacheTimeout 120s
attr unit s
par MultiCell.router.ipv4.arp proxyArpInterfaces "\"*\""
scalar MultiCell.router.ipv4.arp arpReplySent:count 0
attr recordingmode count
attr source arpReplySent
attr title "ARP replies sent, count"
scalar MultiCell.router.ipv4.arp arpReplySent:sum(packetBytes) 0
attr recordingmode sum(packetBytes)
attr source arpReplySent
attr title "ARP replies sent, sum(packetBytes)"
scalar MultiCell.router.ipv4.arp arpRequestSent:count 0
attr recordingmode count
attr source arpRequestSent
attr title "ARP request sent, count"
scalar MultiCell.router.ipv4.arp arpRequestSent:sum(packetBytes) 0
attr recordingmode sum(packetBytes)
attr source arpRequestSent
attr title "ARP request sent, sum(packetBytes)"
scalar MultiCell.router.ipv4.arp arpResolutionFailed:count 0
attr recordingmode count
attr title "ARP failed resolutions, count"
scalar MultiCell.router.ipv4.arp arpResolutionCompleted:count 0
attr recordingmode count
attr title "ARP completed resolutions, count"
scalar MultiCell.router.ipv4.arp arpResolutionInitiated:count 0
attr recordingmode count
attr title "ARP initiated resolutions, count"
par MultiCell.router.ipv4.lp typename "\"inet.common.MessageDispatcher\""
par MultiCell.router.ipv4.lp displayStringTextFormat "\"processed %p pk (%l)\""
par MultiCell.router.ipv4.lp forwardServiceRegistration true
par MultiCell.router.ipv4.lp forwardProtocolRegistration true
par MultiCell.router.ipv4 typename "\"inet.networklayer.ipv4.Ipv4NetworkLayer\""
par MultiCell.router.ipv4 forwarding true
par MultiCell.router.ipv4 multicastForwarding false
par MultiCell.router.ipv4 interfaceTableModule "\"MultiCell.router.interfaceTable\""
par MultiCell.router.ipv4 displayStringTextFormat "\"%i\""
par MultiCell.router.nl typename "\"inet.common.MessageDispatcher\""
par MultiCell.router.nl displayStringTextFormat "\"processed %p pk (%l)\""
par MultiCell.router.nl forwardServiceRegistration true
par MultiCell.router.nl forwardProtocolRegistration true
par MultiCell.router.tn typename "\"inet.common.MessageDispatcher\""
par MultiCell.router.tn displayStringTextFormat "\"processed %p pk (%l)\""
par MultiCell.router.tn forwardServiceRegistration true
par MultiCell.router.tn forwardProtocolRegistration true
par MultiCell.router.at typename "\"inet.common.MessageDispatcher\""
par MultiCell.router.at displayStringTextFormat "\"processed %p pk (%l)\""
par MultiCell.router.at forwardServiceRegistration true
par MultiCell.router.at forwardProtocolRegistration true
par MultiCell.router typename "\"inet.node.inet.Router\""
par MultiCell.router hasStatus false
par MultiCell.router osgModel "\"\""
par MultiCell.router osgModelColor "\"\""
par MultiCell.router canvasImage "\"\""
par MultiCell.router canvasImageColor "\"\""
par MultiCell.router recordPcap false
par MultiCell.router numPcapRecorders 0
par MultiCell.router numLoInterfaces 1
par MultiCell.router numWlanInterfaces 0
par MultiCell.router numEthInterfaces 0
par MultiCell.router numPppInterfaces 0
par MultiCell.router numTunInterfaces 0
par MultiCell.router numVirtInterfaces 0
par MultiCell.router fcsMode "\"declared\""
attr enum declared,computed
par MultiCell.router hasIpv4 true
par MultiCell.router hasIpv6 false
par MultiCell.router hasGn false
par MultiCell.router forwarding true
par MultiCell.router multicastForwarding false
par MultiCell.router hasUdp false
par MultiCell.router hasTcp false
par MultiCell.router hasSctp false
par MultiCell.router numApps 0
par MultiCell.router hasEigrp false
par MultiCell.router hasOspf false
par MultiCell.router hasRip false
par MultiCell.router hasBgp false
par MultiCell.router hasPim false
par MultiCell.router hasDhcp false
par MultiCell.pgw.pppg$i[0].channel typename "\"ned.IdealChannel\""
par MultiCell.pgw.ppp[0].phys$o.channel typename "\"ned.IdealChannel\""
par MultiCell.pgw.pppg$i[1].channel typename "\"ned.IdealChannel\""
par MultiCell.pgw.ppp[1].phys$o.channel typename "\"ned.IdealChannel\""
par MultiCell.pgw.pppg$i[2].channel typename "\"ned.IdealChannel\""
par MultiCell.pgw.ppp[2].phys$o.channel typename "\"ned.IdealChannel\""
par MultiCell.pgw.interfaceTable typename "\"inet.networklayer.common.InterfaceTable\""
par MultiCell.pgw.interfaceTable displayAddresses false
par MultiCell.pgw.cb typename "\"inet.common.MessageDispatcher\""
par MultiCell.pgw.cb displayStringTextFormat "\"processed %p pk (%l)\""
par MultiCell.pgw.cb forwardServiceRegistration true
par MultiCell.pgw.cb forwardProtocolRegistration true
par MultiCell.pgw.bl typename "\"inet.common.MessageDispatcher\""
par MultiCell.pgw.bl displayStringTextFormat "\"processed %p pk (%l)\""
par MultiCell.pgw.bl forwardServiceRegistration true
par MultiCell.pgw.bl forwardProtocolRegistration true
par MultiCell.pgw.li typename "\"inet.common.MessageDispatcher\""
par MultiCell.pgw.li displayStringTextFormat "\"processed %p pk (%l)\""
par MultiCell.pgw.li forwardServiceRegistration true
par MultiCell.pgw.li forwardProtocolRegistration true
par MultiCell.pgw.lo[0].upperLayerIn.channel typename "\"ned.IdealChannel\""
par MultiCell.pgw.lo[0].lo.upperLayerOut.channel typename "\"ned.IdealChannel\""
par MultiCell.pgw.lo[0].lo typename "\"inet.linklayer.loopback.Loopback\""
par MultiCell.pgw.lo[0].lo interfaceTableModule "\"MultiCell.pgw.interfaceTable\""
par MultiCell.pgw.lo[0].lo mtu 4470B
attr unit B
scalar MultiCell.pgw.lo[0].lo rcvdPkFromHl:count 0
attr interpolationmode none
attr recordingmode count
attr source packetReceivedFromUpper
attr title "packets received from higher layer, count"
scalar MultiCell.pgw.lo[0].lo rcvdPkFromHl:sum(packetBytes) 0
attr interpolationmode none
attr recordingmode sum(packetBytes)
attr source packetReceivedFromUpper
attr title "packets received from higher layer, sum(packetBytes)"
scalar MultiCell.pgw.lo[0].lo passedUpPk:count 0
attr interpolationmode none
attr recordingmode count
attr source packetSentToUpper
attr title "packets passed to higher layer, count"
scalar MultiCell.pgw.lo[0].lo passedUpPk:sum(packetBytes) 0
attr interpolationmode none
attr recordingmode sum(packetBytes)
attr source packetSentToUpper
attr title "packets passed to higher layer, sum(packetBytes)"
par MultiCell.pgw.lo[0] typename "\"inet.linklayer.loopback.LoopbackInterface\""
par MultiCell.pgw.lo[0] displayStringTextFormat "\"%a (%i)\\n%m\""
par MultiCell.pgw.lo[0] recordPcap false
par MultiCell.pgw.lo[0] numPcapRecorders 0
par MultiCell.pgw.lo[0] interfaceTableModule "\"MultiCell.pgw.interfaceTable\""
scalar MultiCell.pgw.lo[0] packetDropInterfaceDown:count 0
attr interpolationmode none
attr recordingmode count
attr source packetDropReasonIsInterfaceDown(packetDropped)
[...]
attr recordingmode mean
attr source rcvdSinrDl
attr title "SINR measured at packet reception, DL, mean"
attr unit dB
par MultiCell.ue[9].cellularNic.dlFbGen typename "\"simu5g.stack.phy.feedback.LteDlFeedbackGenerator\""
par MultiCell.ue[9].cellularNic.dlFbGen feedbackType "\"ALLBANDS\""
par MultiCell.ue[9].cellularNic.dlFbGen rbAllocationType "\"localized\""
par MultiCell.ue[9].cellularNic.dlFbGen fbPeriod 6
par MultiCell.ue[9].cellularNic.dlFbGen fbDelay 1
par MultiCell.ue[9].cellularNic.dlFbGen usePeriodic true
par MultiCell.ue[9].cellularNic.dlFbGen initialTxMode "\"SINGLE_ANTENNA_PORT0\""
par MultiCell.ue[9].cellularNic.dlFbGen feedbackGeneratorType "\"IDEAL\""
par MultiCell.ue[9].cellularNic typename "\"simu5g.stack.LteNicUe\""
par MultiCell.ue[9].cellularNic displayStringTextFormat "\"%a (%i)\\n%m\""
par MultiCell.ue[9].cellularNic recordPcap false
par MultiCell.ue[9].cellularNic numPcapRecorders 0
par MultiCell.ue[9].cellularNic isWireless true
par MultiCell.ue[9].cellularNic interfaceTableModule "\"MultiCell.ue[9].interfaceTable\""
par MultiCell.ue[9].cellularNic routingTableModule "\"^.ipv4.routingTable\""
par MultiCell.ue[9].cellularNic LtePdcpRrcType "\"LtePdcpRrcUe\""
par MultiCell.ue[9].cellularNic LteMacType "\"LteMacUe\""
par MultiCell.ue[9].cellularNic PacketFlowManagerType "\"PacketFlowManagerUe\""
par MultiCell.ue[9].cellularNic hasRNISupport false
par MultiCell.ue[9].cellularNic LtePhyType "\"LtePhyUe\""
par MultiCell.ue[9].cellularNic nodeType "\"UE\""
par MultiCell.ue[9].cellularNic processingDelayIn 0s
attr unit s
par MultiCell.ue[9].cellularNic processingDelayOut 0s
attr unit s
par MultiCell.ue[9].cellularNic LteChannelModelType "\"LteRealisticChannelModel\""
par MultiCell.ue[9].cellularNic d2dCapable false
par MultiCell.ue[9].cellularNic dualConnectivityEnabled false
par MultiCell.ue[9].cellularNic numCarriers 1
par MultiCell.ue[9].cellularNic address "\"0A-AA-00-00-00-0D\""
attr mutable ""
scalar MultiCell.ue[9].cellularNic packetDropInterfaceDown:count 0
attr interpolationmode none
attr recordingmode count
attr source packetDropReasonIsInterfaceDown(packetDropped)
attr title "packet drops: interface down, count"
scalar MultiCell.ue[9].cellularNic packetDropInterfaceDown:sum(packetBytes) 0
attr interpolationmode none
attr recordingmode sum(packetBytes)
attr source packetDropReasonIsInterfaceDown(packetDropped)
attr title "packet drops: interface down, sum(packetBytes)"
scalar MultiCell.ue[9].cellularNic packetDropNoCarrier:count 0
attr interpolationmode none
attr recordingmode count
attr source packetDropReasonIsNoCarrier(packetDropped)
attr title "packet drops: no carrier, count"
scalar MultiCell.ue[9].cellularNic packetDropNoCarrier:sum(packetBytes) 0
attr interpolationmode none
attr recordingmode sum(packetBytes)
attr source packetDropReasonIsNoCarrier(packetDropped)
attr title "packet drops: no carrier, sum(packetBytes)"
par MultiCell.ue[9].encap typename "\"inet.linklayer.ethernet.basic.EthernetEncapsulation\""
par MultiCell.ue[9].encap registerProtocol true
par MultiCell.ue[9].encap interfaceTableModule "\"MultiCell.ue[9].interfaceTable\""
par MultiCell.ue[9].encap fcsMode "\"declared\""
attr enum declared,computed
par MultiCell.ue[9].encap stopOperationExtraTime -1s
attr unit s
par MultiCell.ue[9].encap stopOperationTimeout 2s
attr unit s
scalar MultiCell.ue[9].encap decapPk:count 0
attr interpolationmode none
attr recordingmode count
attr source decapPk
attr title "packets decapsulated, count"
scalar MultiCell.ue[9].encap decapPk:sum(packetBytes) 0
attr interpolationmode none
attr recordingmode sum(packetBytes)
attr source decapPk
attr title "packets decapsulated, sum(packetBytes)"
scalar MultiCell.ue[9].encap encapPk:count 0
attr interpolationmode none
attr recordingmode count
attr source encapPk
attr title "packets encapsulated, count"
scalar MultiCell.ue[9].encap encapPk:sum(packetBytes) 0
attr interpolationmode none
attr recordingmode sum(packetBytes)
attr source encapPk
attr title "packets encapsulated, sum(packetBytes)"
scalar MultiCell.ue[9].encap pauseSent:count 0
attr recordingmode count
attr title "pause sent, count"
scalar MultiCell.ue[9].encap pauseSent:sum 0
attr recordingmode sum
attr title "pause sent, sum"
par MultiCell.ue[9].ipv4.transportIn.channel typename "\"ned.IdealChannel\""
par MultiCell.ue[9].ipv4.up.out[0].channel typename "\"ned.IdealChannel\""
par MultiCell.ue[9].ipv4.lp.out[2].channel typename "\"ned.IdealChannel\""
par MultiCell.ue[9].ipv4.ifIn.channel typename "\"ned.IdealChannel\""
par MultiCell.ue[9].ipv4.configurator typename "\"inet.networklayer.configurator.ipv4.Ipv4NodeConfigurator\""
par MultiCell.ue[9].ipv4.configurator interfaceTableModule "\"MultiCell.ue[9].interfaceTable\""
par MultiCell.ue[9].ipv4.configurator routingTableModule "\"MultiCell.ue[9].ipv4.routingTable\""
par MultiCell.ue[9].ipv4.configurator networkConfiguratorModule "\"configurator\""
par MultiCell.ue[9].ipv4.configurator configureRoutingTable true
par MultiCell.ue[9].ipv4.routingTable typename "\"inet.networklayer.ipv4.Ipv4RoutingTable\""
par MultiCell.ue[9].ipv4.routingTable interfaceTableModule "\"MultiCell.ue[9].interfaceTable\""
par MultiCell.ue[9].ipv4.routingTable routerId "\"auto\""
par MultiCell.ue[9].ipv4.routingTable netmaskRoutes "\"*\""
par MultiCell.ue[9].ipv4.routingTable forwarding false
par MultiCell.ue[9].ipv4.routingTable multicastForwarding false
par MultiCell.ue[9].ipv4.routingTable useAdminDist false
par MultiCell.ue[9].ipv4.routingTable routingFile "\"\""
par MultiCell.ue[9].ipv4.natTable typename "\"inet.networklayer.ipv4.Ipv4NatTable\""
par MultiCell.ue[9].ipv4.natTable networkProtocolModule "\"^.ip\""
par MultiCell.ue[9].ipv4.natTable config "<config/> at content:1"
par MultiCell.ue[9].ipv4.up typename "\"inet.common.MessageDispatcher\""
par MultiCell.ue[9].ipv4.up displayStringTextFormat "\"processed %p pk (%l)\""
par MultiCell.ue[9].ipv4.up forwardServiceRegistration true
par MultiCell.ue[9].ipv4.up forwardProtocolRegistration true
par MultiCell.ue[9].ipv4.igmp typename "\"inet.networklayer.ipv4.Igmpv2\""
par MultiCell.ue[9].ipv4.igmp interfaceTableModule "\"MultiCell.ue[9].interfaceTable\""
par MultiCell.ue[9].ipv4.igmp routingTableModule "\"MultiCell.ue[9].ipv4.routingTable\""
par MultiCell.ue[9].ipv4.igmp crcMode "\"declared\""
attr enum declared,computed
par MultiCell.ue[9].ipv4.igmp enabled true
par MultiCell.ue[9].ipv4.igmp robustnessVariable 2
par MultiCell.ue[9].ipv4.igmp queryInterval 125s
attr unit s
par MultiCell.ue[9].ipv4.igmp queryResponseInterval 10s
attr unit s
par MultiCell.ue[9].ipv4.igmp groupMembershipInterval 260s
attr unit s
par MultiCell.ue[9].ipv4.igmp otherQuerierPresentInterval 255s
attr unit s
par MultiCell.ue[9].ipv4.igmp startupQueryInterval 31.25s
attr unit s
par MultiCell.ue[9].ipv4.igmp startupQueryCount 2
par MultiCell.ue[9].ipv4.igmp lastMemberQueryInterval 1s
attr unit s
par MultiCell.ue[9].ipv4.igmp lastMemberQueryCount 2
par MultiCell.ue[9].ipv4.igmp unsolicitedReportInterval 10s
attr unit s
par MultiCell.ue[9].ipv4.icmp typename "\"inet.networklayer.ipv4.Icmp\""
par MultiCell.ue[9].ipv4.icmp interfaceTableModule "\"MultiCell.ue[9].interfaceTable\""
par MultiCell.ue[9].ipv4.icmp routingTableModule "\"MultiCell.ue[9].ipv4.routingTable\""
par MultiCell.ue[9].ipv4.icmp crcMode "\"declared\""
attr enum declared,computed
attr mutable ""
par MultiCell.ue[9].ipv4.icmp quoteLength 8B
attr mutable ""
attr unit B
par MultiCell.ue[9].ipv4.mp typename "\"inet.common.MessageDispatcher\""
par MultiCell.ue[9].ipv4.mp displayStringTextFormat "\"processed %p pk (%l)\""
par MultiCell.ue[9].ipv4.mp forwardServiceRegistration true
par MultiCell.ue[9].ipv4.mp forwardProtocolRegistration true
par MultiCell.ue[9].ipv4.ip typename "\"inet.networklayer.ipv4.Ipv4\""
par MultiCell.ue[9].ipv4.ip interfaceTableModule "\"MultiCell.ue[9].interfaceTable\""
par MultiCell.ue[9].ipv4.ip routingTableModule "\"MultiCell.ue[9].ipv4.routingTable\""
par MultiCell.ue[9].ipv4.ip arpModule "\"MultiCell.ue[9].ipv4.arp\""
par MultiCell.ue[9].ipv4.ip icmpModule "\"MultiCell.ue[9].ipv4.icmp\""
par MultiCell.ue[9].ipv4.ip crcMode "\"declared\""
attr enum declared,computed
par MultiCell.ue[9].ipv4.ip timeToLive 32
par MultiCell.ue[9].ipv4.ip multicastTimeToLive 32
par MultiCell.ue[9].ipv4.ip fragmentTimeout 60s
attr unit s
par MultiCell.ue[9].ipv4.ip limitedBroadcast false
par MultiCell.ue[9].ipv4.ip directBroadcastInterfaces "\"\""
scalar MultiCell.ue[9].ipv4.ip packetDropAddressResolutionFailed:count 0
attr interpolationmode none
attr recordingmode count
attr source packetDropReasonIsAddressResolutionFailed(packetDropped)
attr title "packet drop: address resolution failed, count"
scalar MultiCell.ue[9].ipv4.ip packetDropAddressResolutionFailed:sum(packetBytes) 0
attr interpolationmode none
attr recordingmode sum(packetBytes)
attr source packetDropReasonIsAddressResolutionFailed(packetDropped)
attr title "packet drop: address resolution failed, sum(packetBytes)"
scalar MultiCell.ue[9].ipv4.ip packetDropHopLimitReached:count 0
attr interpolationmode none
attr recordingmode count
attr source packetDropReasonIsHopLimitReached(packetDropped)
attr title "packet drop: hop limit reached, count"
scalar MultiCell.ue[9].ipv4.ip packetDropHopLimitReached:sum(packetBytes) 0
attr interpolationmode none
attr recordingmode sum(packetBytes)
attr source packetDropReasonIsHopLimitReached(packetDropped)
attr title "packet drop: hop limit reached, sum(packetBytes)"
scalar MultiCell.ue[9].ipv4.ip packetDropForwardingDisabled:count 0
attr interpolationmode none
attr recordingmode count
attr source packetDropReasonIsForwardingDisabled(packetDropped)
attr title "packet drop: forwarding disabled, count"
scalar MultiCell.ue[9].ipv4.ip packetDropForwardingDisabled:sum(packetBytes) 0
attr interpolationmode none
attr recordingmode sum(packetBytes)
attr source packetDropReasonIsForwardingDisabled(packetDropped)
attr title "packet drop: forwarding disabled, sum(packetBytes)"
scalar MultiCell.ue[9].ipv4.ip packetDropNoInterfaceFound:count 0
attr interpolationmode none
attr recordingmode count
attr source packetDropReasonIsNoInterfaceFound(packetDropped)
attr title "packet drop: no interface found, count"
scalar MultiCell.ue[9].ipv4.ip packetDropNoInterfaceFound:sum(packetBytes) 0
attr interpolationmode none
attr recordingmode sum(packetBytes)
attr source packetDropReasonIsNoInterfaceFound(packetDropped)
attr title "packet drop: no interface found, sum(packetBytes)"
scalar MultiCell.ue[9].ipv4.ip packetDropNoRouteFound:count 0
attr interpolationmode none
attr recordingmode count
attr source packetDropReasonIsNoRouteFound(packetDropped)
attr title "packet drop: no route found, count"
scalar MultiCell.ue[9].ipv4.ip packetDropNoRouteFound:sum(packetBytes) 0
attr interpolationmode none
attr recordingmode sum(packetBytes)
attr source packetDropReasonIsNoRouteFound(packetDropped)
attr title "packet drop: no route found, sum(packetBytes)"
scalar MultiCell.ue[9].ipv4.ip packetDropUndefined:count 0
attr interpolationmode none
attr recordingmode count
attr source packetDropReasonIsUndefined(packetDropped)
attr title "packet drop: undefined, count"
scalar MultiCell.ue[9].ipv4.ip packetDropUndefined:sum(packetBytes) 0
attr interpolationmode none
attr recordingmode sum(packetBytes)
attr source packetDropReasonIsUndefined(packetDropped)
attr title "packet drop: undefined, sum(packetBytes)"
par MultiCell.ue[9].ipv4.arp typename "\"inet.networklayer.arp.ipv4.Arp\""
par MultiCell.ue[9].ipv4.arp interfaceTableModule "\"MultiCell.ue[9].interfaceTable\""
par MultiCell.ue[9].ipv4.arp routingTableModule "\"MultiCell.ue[9].ipv4.routingTable\""
par MultiCell.ue[9].ipv4.arp retryTimeout 1s
attr unit s
par MultiCell.ue[9].ipv4.arp retryCount 3
par MultiCell.ue[9].ipv4.arp cacheTimeout 120s
attr unit s
par MultiCell.ue[9].ipv4.arp proxyArpInterfaces "\"*\""
scalar MultiCell.ue[9].ipv4.arp arpReplySent:count 0
attr recordingmode count
attr source arpReplySent
attr title "ARP replies sent, count"
scalar MultiCell.ue[9].ipv4.arp arpReplySent:sum(packetBytes) 0
attr recordingmode sum(packetBytes)
attr source arpReplySent
attr title "ARP replies sent, sum(packetBytes)"
scalar MultiCell.ue[9].ipv4.arp arpRequestSent:count 0
attr recordingmode count
attr source arpRequestSent
attr title "ARP request sent, count"
scalar MultiCell.ue[9].ipv4.arp arpRequestSent:sum(packetBytes) 0
attr recordingmode sum(packetBytes)
attr source arpRequestSent
attr title "ARP request sent, sum(packetBytes)"
scalar MultiCell.ue[9].ipv4.arp arpResolutionFailed:count 0
attr recordingmode count
attr title "ARP failed resolutions, count"
scalar MultiCell.ue[9].ipv4.arp arpResolutionCompleted:count 0
attr recordingmode count
attr title "ARP completed resolutions, count"
scalar MultiCell.ue[9].ipv4.arp arpResolutionInitiated:count 0
attr recordingmode count
attr title "ARP initiated resolutions, count"
par MultiCell.ue[9].ipv4.lp typename "\"inet.common.MessageDispatcher\""
par MultiCell.ue[9].ipv4.lp displayStringTextFormat "\"processed %p pk (%l)\""
par MultiCell.ue[9].ipv4.lp forwardServiceRegistration true
par MultiCell.ue[9].ipv4.lp forwardProtocolRegistration true
par MultiCell.ue[9].ipv4 typename "\"inet.networklayer.ipv4.Ipv4NetworkLayer\""
par MultiCell.ue[9].ipv4 forwarding false
par MultiCell.ue[9].ipv4 multicastForwarding false
par MultiCell.ue[9].ipv4 interfaceTableModule "\"MultiCell.ue[9].interfaceTable\""
par MultiCell.ue[9].ipv4 displayStringTextFormat "\"%i\""
par MultiCell.ue[9].udp typename "\"inet.transportlayer.udp.Udp\""
par MultiCell.ue[9].udp interfaceTableModule "\"MultiCell.ue[9].interfaceTable\""
par MultiCell.ue[9].udp icmpModule "\"^.ipv4.icmp\""
par MultiCell.ue[9].udp icmpv6Module "\"^.ipv6.icmpv6\""
par MultiCell.ue[9].udp crcMode "\"declared\""
attr enum disabled,declared,computed
par MultiCell.ue[9].udp defaultMulticastLoop true
scalar MultiCell.ue[9].udp packetReceived:count 0
attr interpolationmode none
attr recordingmode count
attr source packetReceived
attr title "packets received, count"
scalar MultiCell.ue[9].udp packetReceived:sum(packetBytes) 0
attr interpolationmode none
attr recordingmode sum(packetBytes)
attr source packetReceived
attr title "packets received, sum(packetBytes)"
scalar MultiCell.ue[9].udp packetSent:count 0
attr interpolationmode none
attr recordingmode count
attr source packetSent
attr title "packets sent, count"
scalar MultiCell.ue[9].udp packetSent:sum(packetBytes) 0
attr interpolationmode none
attr recordingmode sum(packetBytes)
attr source packetSent
attr title "packets sent, sum(packetBytes)"
scalar MultiCell.ue[9].udp passedUpPk:count 0
attr interpolationmode none
attr recordingmode count
attr source packetSentToUpper
attr title "packets passed up, count"
scalar MultiCell.ue[9].udp droppedPkWrongPort:count 0
attr interpolationmode none
attr recordingmode count
attr source packetDropReasonIsNoPortFound(packetDropped)
attr title "packets dropped (wrong port), count"
scalar MultiCell.ue[9].udp droppedPkBadChecksum:count 0
attr interpolationmode none
attr recordingmode count
attr source packetDropReasonIsIncorrectlyReceived(packetDropped)
attr title "packets dropped (checksum error), count"
par MultiCell.ue[9].tcp typename "\"inet.transportlayer.tcp.Tcp\""
par MultiCell.ue[9].tcp crcMode "\"declared\""
attr enum declared,computed
par MultiCell.ue[9].tcp advertisedWindow 7504
par MultiCell.ue[9].tcp delayedAcksEnabled false
par MultiCell.ue[9].tcp nagleEnabled true
par MultiCell.ue[9].tcp limitedTransmitEnabled false
par MultiCell.ue[9].tcp increasedIWEnabled false
par MultiCell.ue[9].tcp sackSupport false
par MultiCell.ue[9].tcp windowScalingSupport false
par MultiCell.ue[9].tcp windowScalingFactor -1
par MultiCell.ue[9].tcp timestampSupport false
par MultiCell.ue[9].tcp mss 536
par MultiCell.ue[9].tcp msl 120s
attr unit s
par MultiCell.ue[9].tcp tcpAlgorithmClass "\"TcpReno\""
par MultiCell.ue[9].tcp useDataNotification false
par MultiCell.ue[9].tcp dupthresh 3
par MultiCell.ue[9].tcp initialSsthresh 4294967295
par MultiCell.ue[9].tcp stopOperationExtraTime 0s
attr unit s
par MultiCell.ue[9].tcp stopOperationTimeout 2s
attr unit s
par MultiCell.ue[9].tcp ecnWillingness false
par MultiCell.ue[9].tcp dctcpGamma 0.0625
par MultiCell.ue[9].app[0] typename "\"simu5g.apps.voip.VoIPReceiver\""
par MultiCell.ue[9].app[0] localPort 3000
par MultiCell.ue[9].app[0] emodel_Ie_ 5
par MultiCell.ue[9].app[0] emodel_Bpl_ 10
par MultiCell.ue[9].app[0] emodel_A_ 5
par MultiCell.ue[9].app[0] emodel_Ro_ 93.2
par MultiCell.ue[9].app[0] playout_delay 0s
attr unit s
par MultiCell.ue[9].app[0] dim_buffer 20
par MultiCell.ue[9].app[0] sampling_time 0.02s
attr unit s
scalar MultiCell.ue[9].app[0] voIPReceivedThroughput:mean nan
attr recordingmode mean
attr source voIPReceivedThroughput
attr title "Throughput received at the application level, mean"
attr unit Bps
scalar MultiCell.ue[9].app[0] voIPTaildropLoss:mean nan
attr recordingmode mean
attr source voIPTaildropLoss
attr title "VoIP Tail Drop Loss, mean"
attr unit ratio
scalar MultiCell.ue[9].app[0] voIPMos:mean nan
attr recordingmode mean
attr source voIPMos
attr title "VoIP Mos Signal, mean"
attr unit MOS
scalar MultiCell.ue[9].app[0] voIPJitter:mean nan
attr recordingmode mean
attr source voIPJitter
attr title "VoIP Playout Loss, mean"
attr unit s
scalar MultiCell.ue[9].app[0] voIPPlayoutLoss:mean nan
attr recordingmode mean
attr source voIPPlayoutLoss
attr title "VoIP Playout Loss, mean"
attr unit ratio
scalar MultiCell.ue[9].app[0] voIPPlayoutDelay:mean nan
attr recordingmode mean
attr source voIPPlayoutDelay
attr title "VoIP Playout Delay, mean"
attr unit s
scalar MultiCell.ue[9].app[0] voIPFrameDelay:mean nan
attr recordingmode mean
attr source voIPFrameDelay
attr title "VoIP Frame Delay, mean"
attr unit s
scalar MultiCell.ue[9].app[0] voIPFrameLoss:mean nan
attr recordingmode mean
attr source voIPFrameLoss
attr title "VoIP Frame Loss, mean"
attr unit ratio
par MultiCell.ue[9].at typename "\"inet.common.MessageDispatcher\""
par MultiCell.ue[9].at displayStringTextFormat "\"processed %p pk (%l)\""
par MultiCell.ue[9].at forwardServiceRegistration true
par MultiCell.ue[9].at forwardProtocolRegistration true
par MultiCell.ue[9].tn typename "\"inet.common.MessageDispatcher\""
par MultiCell.ue[9].tn displayStringTextFormat "\"processed %p pk (%l)\""
par MultiCell.ue[9].tn forwardServiceRegistration true
par MultiCell.ue[9].tn forwardProtocolRegistration true
par MultiCell.ue[9].nl typename "\"inet.common.MessageDispatcher\""
par MultiCell.ue[9].nl displayStringTextFormat "\"processed %p pk (%l)\""
par MultiCell.ue[9].nl forwardServiceRegistration true
par MultiCell.ue[9].nl forwardProtocolRegistration true
par MultiCell.ue[9] typename "\"simu5g.nodes.Ue\""
par MultiCell.ue[9] numApps 1
par MultiCell.ue[9] hasUdp true
par MultiCell.ue[9] hasTcp true
par MultiCell.ue[9] hasSctp false
par MultiCell.ue[9] nodeType "\"UE\""
par MultiCell.ue[9] masterId 1
attr mutable ""
par MultiCell.ue[9] macNodeId 1034
attr mutable ""
par MultiCell.ue[9] macCellId 3
attr mutable ""
par MultiCell.ue[9] nicType "\"LteNicUe\""
par MultiCell.ue[9] hasIpv4 true
par MultiCell.ue[9] hasIpv6 false
par MultiCell.ue[9] numEthInterfaces 0
par MultiCell.ue[9] extHostAddress "\"\""
par MultiCell.ue[9] numLoInterfaces 1
par MultiCell.ue[9] numPcapRecorders 0
par MultiCell.ue[9] hasRNISupport false
par MultiCell typename "\"_4gltefinal.simulations.MultiCell\""
par MultiCell numUe 10
par MultiCell numCells 3

