version 3
run BiDirectionalTraffic-0-20241129-05:02:50-1488
attr configname BiDirectionalTraffic
attr datetime 20241129-05:02:50
attr datetimef 20241129-050250
attr experiment BiDirectionalTraffic
attr inifile omnetpp.ini
attr iterationvars ""
attr iterationvarsd ""
attr iterationvarsf ""
attr measurement ""
attr network _4gltefinal.simulations.SingleCell
attr processid 1488
attr repetition 0
attr replication #0
attr resultdir results
attr runnumber 0
attr seedset 0
config image-path ../../inet4.5/images;../../simu5g/images
config network _4gltefinal.simulations.SingleCell
config **.mac.schedulingDisciplineDl "\"MAXCI\""
config **.mac.schedulingDisciplineUl "\"MAXCI\""
config *.ue[*].numApps 1
config *.server.numApps 1
config **.ue[*].macCellId 1
config **.ue[*].masterId 1
config *.ue[*].mobility.initialMovementHeading "uniform(0deg, 360deg)"
config *.ue[*].mobility.constraintAreaMaxX 1000m
config *.ue[*].mobility.constraintAreaMaxY 1000m
config *.ue[*].mobility.constraintAreaMinX 0m
config *.ue[*].mobility.constraintAreaMinY 0m
config *.ue[*].mobility.initFromDisplayString false
config *.ue[*].mobility.initialX "uniform(0m, 300m)"
config *.ue[*].mobility.initialY "uniform(0m, 300m)"
config *.ue[*].mobility.initialZ 0m
config *.ue[*].mobility.speed 1mps
config *.ue[*].mobility.typename LinearMobility
config *.ue[*].app[*].typename VoIPReceiver
config *.ue[*].app[0].localPort 3000
config *.server.app[*].PacketSize 40
config *.server.app[*].destAddress "\"ue[\"+string(ancestorIndex(0))+\"]\""
config *.server.app[*].destPort 3000
config *.server.app[*].localPort "3088 + ancestorIndex(0)"
config *.server.app[*].typename VoIPSender
config *.server.app[*].startTime "uniform(0s, 0.02s)"
config image-path ../../images
config output-scalar-file-append false
config sim-time-limit 20s
config output-scalar-file results/BiDirectionalTraffic/0.sca
config output-vector-file results/BiDirectionalTraffic/0.vec
config seed-set 0
config **.vector-recording true
config **.mobility.constraintAreaMinX 0m
config **.mobility.constraintAreaMinY 0m
config **.mobility.constraintAreaMaxX 1000m
config **.mobility.constraintAreaMaxY 1000m
config **.mobility.constraintAreaMinZ 0m
config **.mobility.constraintAreaMaxZ 0m
config **.mobility.initFromDisplayString true
config **.numBands 6
config **.ueTxPower 26
config **.eNodeBTxPower 40
config *.configurator.config "xmldoc(\"./demo.xml\")"

par SingleCell.server.pppg$o[0].channel typename "\"inet.node.ethernet.Eth10G\""
par SingleCell.server.pppg$o[0].channel disabled false
attr mutable ""
par SingleCell.server.pppg$o[0].channel delay 5e-08s
attr mutable ""
attr unit s
par SingleCell.server.pppg$o[0].channel datarate 1e+10bps
attr mutable ""
attr unit bps
par SingleCell.server.pppg$o[0].channel ber 0
attr mutable ""
par SingleCell.server.pppg$o[0].channel per 0
attr mutable ""
par SingleCell.server.pppg$o[0].channel length 10m
attr unit m
par SingleCell.router.pppg$o[0].channel typename "\"inet.node.ethernet.Eth10G\""
par SingleCell.router.pppg$o[0].channel disabled false
attr mutable ""
par SingleCell.router.pppg$o[0].channel delay 5e-08s
attr mutable ""
attr unit s
par SingleCell.router.pppg$o[0].channel datarate 1e+10bps
attr mutable ""
attr unit bps
par SingleCell.router.pppg$o[0].channel ber 0
attr mutable ""
par SingleCell.router.pppg$o[0].channel per 0
attr mutable ""
par SingleCell.router.pppg$o[0].channel length 10m
attr unit m
par SingleCell.router.pppg$o[1].channel typename "\"inet.node.ethernet.Eth10G\""
par SingleCell.router.pppg$o[1].channel disabled false
attr mutable ""
par SingleCell.router.pppg$o[1].channel delay 5e-08s
attr mutable ""
attr unit s
par SingleCell.router.pppg$o[1].channel datarate 1e+10bps
attr mutable ""
attr unit bps
par SingleCell.router.pppg$o[1].channel ber 0
attr mutable ""
par SingleCell.router.pppg$o[1].channel per 0
attr mutable ""
par SingleCell.router.pppg$o[1].channel length 10m
attr unit m
par SingleCell.pgw.filterGate$o.channel typename "\"inet.node.ethernet.Eth10G\""
par SingleCell.pgw.filterGate$o.channel disabled false
attr mutable ""
par SingleCell.pgw.filterGate$o.channel delay 5e-08s
attr mutable ""
attr unit s
par SingleCell.pgw.filterGate$o.channel datarate 1e+10bps
attr mutable ""
attr unit bps
par SingleCell.pgw.filterGate$o.channel ber 0
attr mutable ""
par SingleCell.pgw.filterGate$o.channel per 0
attr mutable ""
par SingleCell.pgw.filterGate$o.channel length 10m
attr unit m
par SingleCell.pgw.pppg$o[0].channel typename "\"inet.node.ethernet.Eth10G\""
par SingleCell.pgw.pppg$o[0].channel disabled false
attr mutable ""
par SingleCell.pgw.pppg$o[0].channel delay 5e-08s
attr mutable ""
attr unit s
par SingleCell.pgw.pppg$o[0].channel datarate 1e+10bps
attr mutable ""
attr unit bps
par SingleCell.pgw.pppg$o[0].channel ber 0
attr mutable ""
par SingleCell.pgw.pppg$o[0].channel per 0
attr mutable ""
par SingleCell.pgw.pppg$o[0].channel length 10m
attr unit m
par SingleCell.eNB.ppp$o.channel typename "\"inet.node.ethernet.Eth10G\""
par SingleCell.eNB.ppp$o.channel disabled false
attr mutable ""
par SingleCell.eNB.ppp$o.channel delay 5e-08s
attr mutable ""
attr unit s
par SingleCell.eNB.ppp$o.channel datarate 1e+10bps
attr mutable ""
attr unit bps
par SingleCell.eNB.ppp$o.channel ber 0
attr mutable ""
par SingleCell.eNB.ppp$o.channel per 0
attr mutable ""
par SingleCell.eNB.ppp$o.channel length 10m
attr unit m
par SingleCell.channelControl typename "\"simu5g.world.radio.LteChannelControl\""
par SingleCell.channelControl coreDebug false
par SingleCell.channelControl pMax 20mW
attr unit mW
par SingleCell.channelControl sat -110dBm
attr unit dBm
par SingleCell.channelControl alpha 2
par SingleCell.channelControl carrierFrequency 2.4e+09Hz
attr unit Hz
par SingleCell.channelControl numChannels 1
par SingleCell.channelControl propagationModel "\"FreeSpaceModel\""
attr enum FreeSpaceModel,TwoRayGroundModel,RiceModel,RayleighModel,NakagamiModel,LogNormalShadowingModel
par SingleCell.routingRecorder typename "\"inet.networklayer.ipv4.RoutingTableRecorder\""
par SingleCell.routingRecorder enabled true
par SingleCell.configurator typename "\"inet.networklayer.configurator.ipv4.Ipv4NetworkConfigurator\""
par SingleCell.configurator minLinkWeight 0.001
par SingleCell.configurator configureIsolatedNetworksSeparatly false
par SingleCell.configurator config "<config>...</config> at C:/Users/Lazuardi/Downloads/omnetpp-6.0.3/samples/4GLteFinal/simulations/\\./demo.xml:1"
par SingleCell.configurator assignAddresses true
par SingleCell.configurator assignUniqueAddresses true
par SingleCell.configurator assignDisjunctSubnetAddresses true
par SingleCell.configurator addStaticRoutes true
par SingleCell.configurator addDefaultRoutes true
par SingleCell.configurator addSubnetRoutes true
par SingleCell.configurator addDirectRoutes true
par SingleCell.configurator optimizeRoutes true
par SingleCell.configurator dumpTopology false
par SingleCell.configurator dumpLinks false
par SingleCell.configurator dumpAddresses false
par SingleCell.configurator dumpRoutes false
par SingleCell.configurator dumpConfig "\"\""
par SingleCell.binder typename "\"simu5g.common.binder.Binder\""
par SingleCell.binder blerShift 0
par SingleCell.binder maxDataRatePerRb 1.16Mbps
attr unit Mbps
par SingleCell.binder printTrafficGeneratorConfig false
par SingleCell.carrierAggregation.componentCarrier[0] typename "\"simu5g.common.carrierAggregation.ComponentCarrier\""
par SingleCell.carrierAggregation.componentCarrier[0] carrierFrequency 2GHz
attr unit GHz
par SingleCell.carrierAggregation.componentCarrier[0] numBands 6
par SingleCell.carrierAggregation.componentCarrier[0] numerologyIndex 0
par SingleCell.carrierAggregation.componentCarrier[0] useTdd false
par SingleCell.carrierAggregation.componentCarrier[0] tddNumSymbolsDl 7
par SingleCell.carrierAggregation.componentCarrier[0] tddNumSymbolsUl 7
par SingleCell.carrierAggregation typename "\"simu5g.common.carrierAggregation.CarrierAggregation\""
par SingleCell.carrierAggregation numComponentCarriers 1
par SingleCell.server.pppg$i[0].channel typename "\"ned.IdealChannel\""
par SingleCell.server.ppp[0].phys$o.channel typename "\"ned.IdealChannel\""
par SingleCell.server.interfaceTable typename "\"inet.networklayer.common.InterfaceTable\""
par SingleCell.server.interfaceTable displayAddresses false
par SingleCell.server.cb typename "\"inet.common.MessageDispatcher\""
par SingleCell.server.cb displayStringTextFormat "\"processed %p pk (%l)\""
par SingleCell.server.cb forwardServiceRegistration true
par SingleCell.server.cb forwardProtocolRegistration true
par SingleCell.server.bl typename "\"inet.common.MessageDispatcher\""
par SingleCell.server.bl displayStringTextFormat "\"processed %p pk (%l)\""
par SingleCell.server.bl forwardServiceRegistration true
par SingleCell.server.bl forwardProtocolRegistration true
par SingleCell.server.li typename "\"inet.common.MessageDispatcher\""
par SingleCell.server.li displayStringTextFormat "\"processed %p pk (%l)\""
par SingleCell.server.li forwardServiceRegistration true
par SingleCell.server.li forwardProtocolRegistration true
par SingleCell.server.lo[0].upperLayerIn.channel typename "\"ned.IdealChannel\""
par SingleCell.server.lo[0].lo.upperLayerOut.channel typename "\"ned.IdealChannel\""
par SingleCell.server.lo[0].lo typename "\"inet.linklayer.loopback.Loopback\""
par SingleCell.server.lo[0].lo interfaceTableModule "\"SingleCell.server.interfaceTable\""
par SingleCell.server.lo[0].lo mtu 4470B
attr unit B
scalar SingleCell.server.lo[0].lo rcvdPkFromHl:count 0
attr interpolationmode none
attr recordingmode count
attr source packetReceivedFromUpper
attr title "packets received from higher layer, count"
scalar SingleCell.server.lo[0].lo rcvdPkFromHl:sum(packetBytes) 0
attr interpolationmode none
attr recordingmode sum(packetBytes)
attr source packetReceivedFromUpper
attr title "packets received from higher layer, sum(packetBytes)"
scalar SingleCell.server.lo[0].lo passedUpPk:count 0
attr interpolationmode none
attr recordingmode count
attr source packetSentToUpper
attr title "packets passed to higher layer, count"
scalar SingleCell.server.lo[0].lo passedUpPk:sum(packetBytes) 0
attr interpolationmode none
attr recordingmode sum(packetBytes)
attr source packetSentToUpper
attr title "packets passed to higher layer, sum(packetBytes)"
par SingleCell.server.lo[0] typename "\"inet.linklayer.loopback.LoopbackInterface\""
par SingleCell.server.lo[0] displayStringTextFormat "\"%a (%i)\\n%m\""
par SingleCell.server.lo[0] recordPcap false
par SingleCell.server.lo[0] numPcapRecorders 0
par SingleCell.server.lo[0] interfaceTableModule "\"SingleCell.server.interfaceTable\""
scalar SingleCell.server.lo[0] packetDropInterfaceDown:count 0
attr interpolationmode none
attr recordingmode count
attr source packetDropReasonIsInterfaceDown(packetDropped)
attr title "packet drops: interface down, count"
scalar SingleCell.server.lo[0] packetDropInterfaceDown:sum(packetBytes) 0
attr interpolationmode none
attr recordingmode sum(packetBytes)
attr source packetDropReasonIsInterfaceDown(packetDropped)
attr title "packet drops: interface down, sum(packetBytes)"
scalar SingleCell.server.lo[0] packetDropNoCarrier:count 0
attr interpolationmode none
attr recordingmode count
attr source packetDropReasonIsNoCarrier(packetDropped)
attr title "packet drops: no carrier, count"
scalar SingleCell.server.lo[0] packetDropNoCarrier:sum(packetBytes) 0
attr interpolationmode none
attr recordingmode sum(packetBytes)
attr source packetDropReasonIsNoCarrier(packetDropped)
attr title "packet drops: no carrier, sum(packetBytes)"
par SingleCell.server.ppp[0].phys$i.channel typename "\"ned.IdealChannel\""
par SingleCell.server.ppp[0].ppp.phys$o.channel typename "\"ned.IdealChannel\""
par SingleCell.server.ppp[0].ppp.upperLayerOut.channel typename "\"ned.IdealChannel\""
par SingleCell.server.ppp[0].upperLayerIn.channel typename "\"ned.IdealChannel\""
par SingleCell.server.ppp[0].queue typename "\"inet.queueing.queue.DropTailQueue\""
par SingleCell.server.ppp[0].queue displayStringTextFormat "\"contains %p pk (%l) pushed %u\\npulled %o removed %r dropped %d\""
par SingleCell.server.ppp[0].queue packetCapacity 10000
par SingleCell.server.ppp[0].queue dataCapacity -1b
attr unit b
par SingleCell.server.ppp[0].queue dropperClass "\"inet::queueing::PacketAtCollectionEndDropper\""
par SingleCell.server.ppp[0].queue comparatorClass "\"\""
par SingleCell.server.ppp[0].queue bufferModule "\"\""
scalar SingleCell.server.ppp[0].queue queueLength:last 0
attr autoWarmupFilter false
attr interpolationmode sample-hold
attr recordingmode last
attr source "warmup(atomic(constant0(packetPushEnded) + count(packetPushStarted) - count(packetPulled) - count(packetRemoved) - count(packetDropped)))"
attr title "queue length, last"
attr unit pk
scalar SingleCell.server.ppp[0].queue queueLength:max 0
attr autoWarmupFilter false
attr interpolationmode sample-hold
attr recordingmode max
attr source "warmup(atomic(constant0(packetPushEnded) + count(packetPushStarted) - count(packetPulled) - count(packetRemoved) - count(packetDropped)))"
attr title "queue length, max"
attr unit pk
scalar SingleCell.server.ppp[0].queue queueLength:timeavg nan
attr autoWarmupFilter false
attr interpolationmode sample-hold
attr recordingmode timeavg
attr source "warmup(atomic(constant0(packetPushEnded) + count(packetPushStarted) - count(packetPulled) - count(packetRemoved) - count(packetDropped)))"
attr title "queue length, timeavg"
attr unit pk
scalar SingleCell.server.ppp[0].queue queueBitLength:last 0
attr autoWarmupFilter false
attr interpolationmode sample-hold
attr recordingmode last
attr source "warmup(atomic(constant0(packetPushEnded) + sum(packetLength(packetPushStarted)) - sum(packetLength(packetPulled)) - sum(packetLength(packetRemoved)) - sum(packetLength(packetDropped))))"
attr title "queue bit length, last"
attr unit b
scalar SingleCell.server.ppp[0].queue queueBitLength:max 0
attr autoWarmupFilter false
attr interpolationmode sample-hold
attr recordingmode max
attr source "warmup(atomic(constant0(packetPushEnded) + sum(packetLength(packetPushStarted)) - sum(packetLength(packetPulled)) - sum(packetLength(packetRemoved)) - sum(packetLength(packetDropped))))"
attr title "queue bit length, max"
attr unit b
scalar SingleCell.server.ppp[0].queue queueBitLength:timeavg nan
attr autoWarmupFilter false
attr interpolationmode sample-hold
attr recordingmode timeavg
attr source "warmup(atomic(constant0(packetPushEnded) + sum(packetLength(packetPushStarted)) - sum(packetLength(packetPulled)) - sum(packetLength(packetRemoved)) - sum(packetLength(packetDropped))))"
attr title "queue bit length, timeavg"
attr unit b
statistic SingleCell.server.ppp[0].queue queueingTime:histogram
field count 0
field mean nan
field stddev nan
field min nan
field max nan
field sum 0
field sqrsum 0
attr interpolationmode none
attr recordingmode histogram
attr source queueingTime(packetPulled)
attr title "queueing times"
attr unit s
bin	-inf	0
bin	0	0
bin	1	0
scalar SingleCell.server.ppp[0].queue outgoingPackets:count 0
attr recordingmode count
attr source packetPulled
attr title "outgoing packets, count"
attr unit pk
scalar SingleCell.server.ppp[0].queue outgoingPacketLengths:sum 0
attr interpolationmode none
attr recordingmode sum
attr source packetLength(packetPulled)
attr title "outgoing packet lengths, sum"
attr unit b
statistic SingleCell.server.ppp[0].queue outgoingPacketLengths:histogram
field count 0
field mean nan
field stddev nan
field min nan
field max nan
field sum 0
field sqrsum 0
attr interpolationmode none
attr recordingmode histogram
attr source packetLength(packetPulled)
attr title "outgoing packet lengths"
attr unit b
bin	-inf	0
bin	0	0
bin	1	0
statistic SingleCell.server.ppp[0].queue flowQueueingTime:histogram
field count 0
field mean nan
field stddev nan
field min nan
field max nan
field sum 0
field sqrsum 0
attr interpolationmode none
attr recordingmode histogram
attr source queueingTime(demuxFlow(packetPulled))
attr title "flow queueing times"
attr unit s
bin	-inf	0
bin	0	0
bin	1	0
scalar SingleCell.server.ppp[0].queue incomingPackets:count 0
attr recordingmode count
attr source packetPushStarted
attr title "incoming packets, count"
attr unit pk
scalar SingleCell.server.ppp[0].queue incomingPacketLengths:sum 0
attr interpolationmode none
attr recordingmode sum
attr source packetLength(packetPushStarted)
attr title "incoming packet lengths, sum"
attr unit b
statistic SingleCell.server.ppp[0].queue incomingPacketLengths:histogram
field count 0
field mean nan
field stddev nan
field min nan
field max nan
field sum 0
field sqrsum 0
attr interpolationmode none
attr recordingmode histogram
attr source packetLength(packetPushStarted)
attr title "incoming packet lengths"
attr unit b
bin	-inf	0
bin	0	0
bin	1	0
scalar SingleCell.server.ppp[0].queue droppedPacketsQueueOverflow:count 0
attr interpolationmode none
attr recordingmode count
attr source packetDropReasonIsQueueOverflow(packetDropped)
attr title "dropped packets: queue overflow, count"
attr unit pk
scalar SingleCell.server.ppp[0].queue droppedPacketLengthsQueueOverflow:sum 0
attr interpolationmode none
attr recordingmode sum
attr source packetLength(packetDropReasonIsQueueOverflow(packetDropped))
attr title "dropped packet lengths: queue overflow, sum"
attr unit b
par SingleCell.server.ppp[0].ppp typename "\"inet.linklayer.ppp.Ppp\""
par SingleCell.server.ppp[0].ppp interfaceTableModule "\"SingleCell.server.interfaceTable\""
par SingleCell.server.ppp[0].ppp displayStringTextFormat "\"rate: %b\\nsent: %s, rcvd: %r\\nqueue: %q, drop: %d\""
par SingleCell.server.ppp[0].ppp sendRawBytes false
par SingleCell.server.ppp[0].ppp mtu 4470B
attr unit B
par SingleCell.server.ppp[0].ppp stopOperationExtraTime -1s
attr unit s
par SingleCell.server.ppp[0].ppp stopOperationTimeout 2s
attr unit s
scalar SingleCell.server.ppp[0].ppp txPk:count 0
attr interpolationmode none
attr recordingmode count
attr source packetSentToLower
attr title "packets transmitted, count"
scalar SingleCell.server.ppp[0].ppp txPk:sum(packetBytes) 0
attr interpolationmode none
attr recordingmode sum(packetBytes)
attr source packetSentToLower
attr title "packets transmitted, sum(packetBytes)"
scalar SingleCell.server.ppp[0].ppp rcvdPkFromHl:count 0
attr interpolationmode none
attr recordingmode count
attr source packetReceivedFromUpper
attr title "packets received from higher layer, count"
scalar SingleCell.server.ppp[0].ppp rcvdPkFromHl:sum(packetBytes) 0
attr interpolationmode none
attr recordingmode sum(packetBytes)
attr source packetReceivedFromUpper
attr title "packets received from higher layer, sum(packetBytes)"
scalar SingleCell.server.ppp[0].ppp passedUpPk:count 0
attr interpolationmode none
attr recordingmode count
attr source packetSentToUpper
attr title "packets passed to higher layer, count"
scalar SingleCell.server.ppp[0].ppp passedUpPk:sum(packetBytes) 0
attr interpolationmode none
attr recordingmode sum(packetBytes)
attr source packetSentToUpper
attr title "packets passed to higher layer, sum(packetBytes)"
scalar SingleCell.server.ppp[0].ppp packetDropIncorrectlyReceived:count 0
attr interpolationmode none
attr recordingmode count
attr source packetDropReasonIsIncorrectlyReceived(packetDropped)
attr title "packet drop: incorrectly received, count"
scalar SingleCell.server.ppp[0].ppp packetDropIncorrectlyReceived:sum(packetBytes) 0
attr interpolationmode none
attr recordingmode sum(packetBytes)
attr source packetDropReasonIsIncorrectlyReceived(packetDropped)
attr title "packet drop: incorrectly received, sum(packetBytes)"
scalar SingleCell.server.ppp[0].ppp packetDropInterfaceDown:count 0
attr interpolationmode none
attr recordingmode count
attr source packetDropReasonIsInterfaceDown(packetDropped)
attr title "packet drop: interface down, count"
scalar SingleCell.server.ppp[0].ppp packetDropInterfaceDown:sum(packetBytes) 0
attr interpolationmode none
attr recordingmode sum(packetBytes)
attr source packetDropReasonIsInterfaceDown(packetDropped)
attr title "packet drop: interface down, sum(packetBytes)"
scalar SingleCell.server.ppp[0].ppp rxPkOk:count 0
attr interpolationmode none
attr recordingmode count
attr source rxPkOk
attr title "packets received OK, count"
scalar SingleCell.server.ppp[0].ppp rxPkOk:sum(packetBytes) 0
attr interpolationmode none
attr recordingmode sum(packetBytes)
attr source rxPkOk
attr title "packets received OK, sum(packetBytes)"
scalar SingleCell.server.ppp[0].ppp transmissionState:timeavg nan
attr interpolationmode sample-hold
attr recordingmode timeavg
attr source transmissionStateChanged
attr title "tx state, timeavg"
par SingleCell.server.ppp[0] typename "\"inet.linklayer.ppp.PppInterface\""
par SingleCell.server.ppp[0] displayStringTextFormat "\"%a (%i)\\n%m\""
par SingleCell.server.ppp[0] recordPcap false
par SingleCell.server.ppp[0] numPcapRecorders 0
par SingleCell.server.ppp[0] interfaceTableModule "\"SingleCell.server.interfaceTable\""
scalar SingleCell.server.ppp[0] packetDropInterfaceDown:count 0
attr interpolationmode none
attr recordingmode count
attr source packetDropReasonIsInterfaceDown(packetDropped)
attr title "packet drops: interface down, count"
scalar SingleCell.server.ppp[0] packetDropInterfaceDown:sum(packetBytes) 0
attr interpolationmode none
attr recordingmode sum(packetBytes)
attr source packetDropReasonIsInterfaceDown(packetDropped)
attr title "packet drops: interface down, sum(packetBytes)"
scalar SingleCell.server.ppp[0] packetDropNoCarrier:count 0
attr interpolationmode none
attr recordingmode count
attr source packetDropReasonIsNoCarrier(packetDropped)
attr title "packet drops: no carrier, count"
scalar SingleCell.server.ppp[0] packetDropNoCarrier:sum(packetBytes) 0
attr interpolationmode none
attr recordingmode sum(packetBytes)
attr source packetDropReasonIsNoCarrier(packetDropped)
attr title "packet drops: no carrier, sum(packetBytes)"
par SingleCell.server.ipv4.transportIn.channel typename "\"ned.IdealChannel\""
par SingleCell.server.ipv4.up.out[0].channel typename "\"ned.IdealChannel\""
par SingleCell.server.ipv4.lp.out[2].channel typename "\"ned.IdealChannel\""
par SingleCell.server.ipv4.ifIn.channel typename "\"ned.IdealChannel\""
par SingleCell.server.ipv4.configurator typename "\"inet.networklayer.configurator.ipv4.Ipv4NodeConfigurator\""
par SingleCell.server.ipv4.configurator interfaceTableModule "\"SingleCell.server.interfaceTable\""
par SingleCell.server.ipv4.configurator routingTableModule "\"SingleCell.server.ipv4.routingTable\""
par SingleCell.server.ipv4.configurator networkConfiguratorModule "\"configurator\""
par SingleCell.server.ipv4.configurator configureRoutingTable true
par SingleCell.server.ipv4.routingTable typename "\"inet.networklayer.ipv4.Ipv4RoutingTable\""
par SingleCell.server.ipv4.routingTable interfaceTableModule "\"SingleCell.server.interfaceTable\""
par SingleCell.server.ipv4.routingTable routerId "\"auto\""
par SingleCell.server.ipv4.routingTable netmaskRoutes "\"*\""
par SingleCell.server.ipv4.routingTable forwarding false
par SingleCell.server.ipv4.routingTable multicastForwarding false
par SingleCell.server.ipv4.routingTable useAdminDist false
par SingleCell.server.ipv4.routingTable routingFile "\"\""
par SingleCell.server.ipv4.natTable typename "\"inet.networklayer.ipv4.Ipv4NatTable\""
par SingleCell.server.ipv4.natTable networkProtocolModule "\"^.ip\""
par SingleCell.server.ipv4.natTable config "<config/> at content:1"
par SingleCell.server.ipv4.up typename "\"inet.common.MessageDispatcher\""
par SingleCell.server.ipv4.up displayStringTextFormat "\"processed %p pk (%l)\""
par SingleCell.server.ipv4.up forwardServiceRegistration true
par SingleCell.server.ipv4.up forwardProtocolRegistration true
par SingleCell.server.ipv4.igmp typename "\"inet.networklayer.ipv4.Igmpv2\""
par SingleCell.server.ipv4.igmp interfaceTableModule "\"SingleCell.server.interfaceTable\""
par SingleCell.server.ipv4.igmp routingTableModule "\"SingleCell.server.ipv4.routingTable\""
par SingleCell.server.ipv4.igmp crcMode "\"declared\""
attr enum declared,computed
par SingleCell.server.ipv4.igmp enabled true
par SingleCell.server.ipv4.igmp robustnessVariable 2
par SingleCell.server.ipv4.igmp queryInterval 125s
attr unit s
par SingleCell.server.ipv4.igmp queryResponseInterval 10s
attr unit s
par SingleCell.server.ipv4.igmp groupMembershipInterval 260s
attr unit s
par SingleCell.server.ipv4.igmp otherQuerierPresentInterval 255s
attr unit s
par SingleCell.server.ipv4.igmp startupQueryInterval 31.25s
attr unit s
par SingleCell.server.ipv4.igmp startupQueryCount 2
par SingleCell.server.ipv4.igmp lastMemberQueryInterval 1s
attr unit s
par SingleCell.server.ipv4.igmp lastMemberQueryCount 2
par SingleCell.server.ipv4.igmp unsolicitedReportInterval 10s
attr unit s
par SingleCell.server.ipv4.icmp typename "\"inet.networklayer.ipv4.Icmp\""
par SingleCell.server.ipv4.icmp interfaceTableModule "\"SingleCell.server.interfaceTable\""
par SingleCell.server.ipv4.icmp routingTableModule "\"SingleCell.server.ipv4.routingTable\""
par SingleCell.server.ipv4.icmp crcMode "\"declared\""
attr enum declared,computed
attr mutable ""
par SingleCell.server.ipv4.icmp quoteLength 8B
attr mutable ""
attr unit B
par SingleCell.server.ipv4.mp typename "\"inet.common.MessageDispatcher\""
par SingleCell.server.ipv4.mp displayStringTextFormat "\"processed %p pk (%l)\""
par SingleCell.server.ipv4.mp forwardServiceRegistration true
par SingleCell.server.ipv4.mp forwardProtocolRegistration true
par SingleCell.server.ipv4.ip typename "\"inet.networklayer.ipv4.Ipv4\""
par SingleCell.server.ipv4.ip interfaceTableModule "\"SingleCell.server.interfaceTable\""
par SingleCell.server.ipv4.ip routingTableModule "\"SingleCell.server.ipv4.routingTable\""
par SingleCell.server.ipv4.ip arpModule "\"SingleCell.server.ipv4.arp\""
par SingleCell.server.ipv4.ip icmpModule "\"SingleCell.server.ipv4.icmp\""
par SingleCell.server.ipv4.ip crcMode "\"declared\""
attr enum declared,computed
par SingleCell.server.ipv4.ip timeToLive 32
par SingleCell.server.ipv4.ip multicastTimeToLive 32
par SingleCell.server.ipv4.ip fragmentTimeout 60s
attr unit s
par SingleCell.server.ipv4.ip limitedBroadcast false
par SingleCell.server.ipv4.ip directBroadcastInterfaces "\"\""
scalar SingleCell.server.ipv4.ip packetDropAddressResolutionFailed:count 0
attr interpolationmode none
attr recordingmode count
attr source packetDropReasonIsAddressResolutionFailed(packetDropped)
attr title "packet drop: address resolution failed, count"
scalar SingleCell.server.ipv4.ip packetDropAddressResolutionFailed:sum(packetBytes) 0
attr interpolationmode none
attr recordingmode sum(packetBytes)
attr source packetDropReasonIsAddressResolutionFailed(packetDropped)
attr title "packet drop: address resolution failed, sum(packetBytes)"
scalar SingleCell.server.ipv4.ip packetDropHopLimitReached:count 0
attr interpolationmode none
attr recordingmode count
attr source packetDropReasonIsHopLimitReached(packetDropped)
attr title "packet drop: hop limit reached, count"
scalar SingleCell.server.ipv4.ip packetDropHopLimitReached:sum(packetBytes) 0
attr interpolationmode none
attr recordingmode sum(packetBytes)
attr source packetDropReasonIsHopLimitReached(packetDropped)
attr title "packet drop: hop limit reached, sum(packetBytes)"
scalar SingleCell.server.ipv4.ip packetDropForwardingDisabled:count 0
attr interpolationmode none
attr recordingmode count
attr source packetDropReasonIsForwardingDisabled(packetDropped)
attr title "packet drop: forwarding disabled, count"
scalar SingleCell.server.ipv4.ip packetDropForwardingDisabled:sum(packetBytes) 0
attr interpolationmode none
attr recordingmode sum(packetBytes)
attr source packetDropReasonIsForwardingDisabled(packetDropped)
attr title "packet drop: forwarding disabled, sum(packetBytes)"
scalar SingleCell.server.ipv4.ip packetDropNoInterfaceFound:count 0
attr interpolationmode none
attr recordingmode count
attr source packetDropReasonIsNoInterfaceFound(packetDropped)
attr title "packet drop: no interface found, count"
scalar SingleCell.server.ipv4.ip packetDropNoInterfaceFound:sum(packetBytes) 0
attr interpolationmode none
attr recordingmode sum(packetBytes)
attr source packetDropReasonIsNoInterfaceFound(packetDropped)
attr title "packet drop: no interface found, sum(packetBytes)"
scalar SingleCell.server.ipv4.ip packetDropNoRouteFound:count 0
attr interpolationmode none
attr recordingmode count
attr source packetDropReasonIsNoRouteFound(packetDropped)
attr title "packet drop: no route found, count"
scalar SingleCell.server.ipv4.ip packetDropNoRouteFound:sum(packetBytes) 0
attr interpolationmode none
attr recordingmode sum(packetBytes)
attr source packetDropReasonIsNoRouteFound(packetDropped)
attr title "packet drop: no route found, sum(packetBytes)"
scalar SingleCell.server.ipv4.ip packetDropUndefined:count 0
attr interpolationmode none
attr recordingmode count
attr source packetDropReasonIsUndefined(packetDropped)
attr title "packet drop: undefined, count"
scalar SingleCell.server.ipv4.ip packetDropUndefined:sum(packetBytes) 0
attr interpolationmode none
attr recordingmode sum(packetBytes)
attr source packetDropReasonIsUndefined(packetDropped)
attr title "packet drop: undefined, sum(packetBytes)"
par SingleCell.server.ipv4.arp typename "\"inet.networklayer.arp.ipv4.Arp\""
par SingleCell.server.ipv4.arp interfaceTableModule "\"SingleCell.server.interfaceTable\""
par SingleCell.server.ipv4.arp routingTableModule "\"SingleCell.server.ipv4.routingTable\""
par SingleCell.server.ipv4.arp retryTimeout 1s
attr unit s
par SingleCell.server.ipv4.arp retryCount 3
par SingleCell.server.ipv4.arp cacheTimeout 120s
attr unit s
par SingleCell.server.ipv4.arp proxyArpInterfaces "\"\""
scalar SingleCell.server.ipv4.arp arpReplySent:count 0
attr recordingmode count
attr source arpReplySent
attr title "ARP replies sent, count"
scalar SingleCell.server.ipv4.arp arpReplySent:sum(packetBytes) 0
attr recordingmode sum(packetBytes)
attr source arpReplySent
attr title "ARP replies sent, sum(packetBytes)"
scalar SingleCell.server.ipv4.arp arpRequestSent:count 0
attr recordingmode count
attr source arpRequestSent
attr title "ARP request sent, count"
scalar SingleCell.server.ipv4.arp arpRequestSent:sum(packetBytes) 0
attr recordingmode sum(packetBytes)
attr source arpRequestSent
attr title "ARP request sent, sum(packetBytes)"
scalar SingleCell.server.ipv4.arp arpResolutionFailed:count 0
attr recordingmode count
attr title "ARP failed resolutions, count"
scalar SingleCell.server.ipv4.arp arpResolutionCompleted:count 0
attr recordingmode count
attr title "ARP completed resolutions, count"
scalar SingleCell.server.ipv4.arp arpResolutionInitiated:count 0
attr recordingmode count
attr title "ARP initiated resolutions, count"
par SingleCell.server.ipv4.lp typename "\"inet.common.MessageDispatcher\""
par SingleCell.server.ipv4.lp displayStringTextFormat "\"processed %p pk (%l)\""
par SingleCell.server.ipv4.lp forwardServiceRegistration true
par SingleCell.server.ipv4.lp forwardProtocolRegistration true
par SingleCell.server.ipv4 typename "\"inet.networklayer.ipv4.Ipv4NetworkLayer\""
par SingleCell.server.ipv4 forwarding false
par SingleCell.server.ipv4 multicastForwarding false
par SingleCell.server.ipv4 interfaceTableModule "\"SingleCell.server.interfaceTable\""
par SingleCell.server.ipv4 displayStringTextFormat "\"%i\""
par SingleCell.server.nl typename "\"inet.common.MessageDispatcher\""
par SingleCell.server.nl displayStringTextFormat "\"processed %p pk (%l)\""
par SingleCell.server.nl forwardServiceRegistration true
par SingleCell.server.nl forwardProtocolRegistration true
par SingleCell.server.udp typename "\"inet.transportlayer.udp.Udp\""
par SingleCell.server.udp interfaceTableModule "\"SingleCell.server.interfaceTable\""
par SingleCell.server.udp icmpModule "\"^.ipv4.icmp\""
par SingleCell.server.udp icmpv6Module "\"^.ipv6.icmpv6\""
par SingleCell.server.udp crcMode "\"declared\""
attr enum disabled,declared,computed
par SingleCell.server.udp defaultMulticastLoop true
scalar SingleCell.server.udp packetReceived:count 0
attr interpolationmode none
attr recordingmode count
attr source packetReceived
attr title "packets received, count"
scalar SingleCell.server.udp packetReceived:sum(packetBytes) 0
attr interpolationmode none
attr recordingmode sum(packetBytes)
attr source packetReceived
attr title "packets received, sum(packetBytes)"
scalar SingleCell.server.udp packetSent:count 0
attr interpolationmode none
attr recordingmode count
attr source packetSent
attr title "packets sent, count"
scalar SingleCell.server.udp packetSent:sum(packetBytes) 0
attr interpolationmode none
attr recordingmode sum(packetBytes)
attr source packetSent
attr title "packets sent, sum(packetBytes)"
scalar SingleCell.server.udp passedUpPk:count 0
attr interpolationmode none
attr recordingmode count
attr source packetSentToUpper
attr title "packets passed up, count"
scalar SingleCell.server.udp droppedPkWrongPort:count 0
attr interpolationmode none
attr recordingmode count
attr source packetDropReasonIsNoPortFound(packetDropped)
attr title "packets dropped (wrong port), count"
scalar SingleCell.server.udp droppedPkBadChecksum:count 0
attr interpolationmode none
attr recordingmode count
attr source packetDropReasonIsIncorrectlyReceived(packetDropped)
attr title "packets dropped (checksum error), count"
par SingleCell.server.tcp typename "\"inet.transportlayer.tcp.Tcp\""
par SingleCell.server.tcp crcMode "\"declared\""
attr enum declared,computed
par SingleCell.server.tcp advertisedWindow 7504
par SingleCell.server.tcp delayedAcksEnabled false
par SingleCell.server.tcp nagleEnabled true
par SingleCell.server.tcp limitedTransmitEnabled false
par SingleCell.server.tcp increasedIWEnabled false
par SingleCell.server.tcp sackSupport false
par SingleCell.server.tcp windowScalingSupport false
par SingleCell.server.tcp windowScalingFactor -1
par SingleCell.server.tcp timestampSupport false
par SingleCell.server.tcp mss 536
par SingleCell.server.tcp msl 120s
attr unit s
par SingleCell.server.tcp tcpAlgorithmClass "\"TcpReno\""
par SingleCell.server.tcp useDataNotification false
par SingleCell.server.tcp dupthresh 3
par SingleCell.server.tcp initialSsthresh 4294967295
par SingleCell.server.tcp stopOperationExtraTime 0s
attr unit s
par SingleCell.server.tcp stopOperationTimeout 2s
attr unit s
par SingleCell.server.tcp ecnWillingness false
par SingleCell.server.tcp dctcpGamma 0.0625
par SingleCell.server.tn typename "\"inet.common.MessageDispatcher\""
par SingleCell.server.tn displayStringTextFormat "\"processed %p pk (%l)\""
par SingleCell.server.tn forwardServiceRegistration true
par SingleCell.server.tn forwardProtocolRegistration true
par SingleCell.server.app[0] typename "\"simu5g.apps.voip.VoIPSender\""
par SingleCell.server.app[0] localPort 3088
par SingleCell.server.app[0] destPort 3000
par SingleCell.server.app[0] destAddress "\"ue[0]\""
par SingleCell.server.app[0] PacketSize 40
par SingleCell.server.app[0] shape_talk 0.824
par SingleCell.server.app[0] scale_talk 1.423
par SingleCell.server.app[0] shape_sil 1.089
par SingleCell.server.app[0] scale_sil 0.899
par SingleCell.server.app[0] is_talk true
par SingleCell.server.app[0] sampling_time 0.02s
attr unit s
par SingleCell.server.app[0] startTime 0.0162304s
attr unit s
par SingleCell.server.app[0] silences true
par SingleCell.server.app[0] tos -1
scalar SingleCell.server.app[0] voIPGeneratedThroughput:mean nan
attr recordingmode mean
attr source voIPGeneratedThroughput
attr title "Throughput generated by the application, mean"
attr unit Bps
par SingleCell.server.at typename "\"inet.common.MessageDispatcher\""
par SingleCell.server.at displayStringTextFormat "\"processed %p pk (%l)\""
par SingleCell.server.at forwardServiceRegistration true
par SingleCell.server.at forwardProtocolRegistration true
par SingleCell.server typename "\"inet.node.inet.StandardHost\""
par SingleCell.server hasStatus false
par SingleCell.server osgModel "\"\""
par SingleCell.server osgModelColor "\"\""
par SingleCell.server canvasImage "\"\""
par SingleCell.server canvasImageColor "\"\""
par SingleCell.server recordPcap false
par SingleCell.server numPcapRecorders 0
par SingleCell.server numLoInterfaces 1
par SingleCell.server numWlanInterfaces 0
par SingleCell.server numEthInterfaces 0
par SingleCell.server numPppInterfaces 0
par SingleCell.server numTunInterfaces 0
par SingleCell.server numVirtInterfaces 0
par SingleCell.server fcsMode "\"declared\""
attr enum declared,computed
par SingleCell.server hasIpv4 true
par SingleCell.server hasIpv6 false
par SingleCell.server hasGn false
par SingleCell.server forwarding false
par SingleCell.server multicastForwarding false
par SingleCell.server hasUdp true
par SingleCell.server hasTcp true
par SingleCell.server hasSctp false
par SingleCell.server numApps 1
par SingleCell.router.pppg$i[0].channel typename "\"ned.IdealChannel\""
par SingleCell.router.ppp[0].phys$o.channel typename "\"ned.IdealChannel\""
par SingleCell.router.pppg$i[1].channel typename "\"ned.IdealChannel\""
par SingleCell.router.ppp[1].phys$o.channel typename "\"ned.IdealChannel\""
par SingleCell.router.interfaceTable typename "\"inet.networklayer.common.InterfaceTable\""
par SingleCell.router.interfaceTable displayAddresses false
par SingleCell.router.cb typename "\"inet.common.MessageDispatcher\""
par SingleCell.router.cb displayStringTextFormat "\"processed %p pk (%l)\""
par SingleCell.router.cb forwardServiceRegistration true
par SingleCell.router.cb forwardProtocolRegistration true
par SingleCell.router.bl typename "\"inet.common.MessageDispatcher\""
par SingleCell.router.bl displayStringTextFormat "\"processed %p pk (%l)\""
par SingleCell.router.bl forwardServiceRegistration true
par SingleCell.router.bl forwardProtocolRegistration true
par SingleCell.router.li typename "\"inet.common.MessageDispatcher\""
par SingleCell.router.li displayStringTextFormat "\"processed %p pk (%l)\""
par SingleCell.router.li forwardServiceRegistration true
par SingleCell.router.li forwardProtocolRegistration true
par SingleCell.router.lo[0].upperLayerIn.channel typename "\"ned.IdealChannel\""
par SingleCell.router.lo[0].lo.upperLayerOut.channel typename "\"ned.IdealChannel\""
par SingleCell.router.lo[0].lo typename "\"inet.linklayer.loopback.Loopback\""
par SingleCell.router.lo[0].lo interfaceTableModule "\"SingleCell.router.interfaceTable\""
par SingleCell.router.lo[0].lo mtu 4470B
attr unit B
scalar SingleCell.router.lo[0].lo rcvdPkFromHl:count 0
attr interpolationmode none
attr recordingmode count
attr source packetReceivedFromUpper
attr title "packets received from higher layer, count"
scalar SingleCell.router.lo[0].lo rcvdPkFromHl:sum(packetBytes) 0
attr interpolationmode none
attr recordingmode sum(packetBytes)
attr source packetReceivedFromUpper
attr title "packets received from higher layer, sum(packetBytes)"
scalar SingleCell.router.lo[0].lo passedUpPk:count 0
attr interpolationmode none
attr recordingmode count
attr source packetSentToUpper
attr title "packets passed to higher layer, count"
scalar SingleCell.router.lo[0].lo passedUpPk:sum(packetBytes) 0
attr interpolationmode none
attr recordingmode sum(packetBytes)
attr source packetSentToUpper
attr title "packets passed to higher layer, sum(packetBytes)"
par SingleCell.router.lo[0] typename "\"inet.linklayer.loopback.LoopbackInterface\""
par SingleCell.router.lo[0] displayStringTextFormat "\"%a (%i)\\n%m\""
par SingleCell.router.lo[0] recordPcap false
par SingleCell.router.lo[0] numPcapRecorders 0
par SingleCell.router.lo[0] interfaceTableModule "\"SingleCell.router.interfaceTable\""
scalar SingleCell.router.lo[0] packetDropInterfaceDown:count 0
attr interpolationmode none
attr recordingmode count
attr source packetDropReasonIsInterfaceDown(packetDropped)
attr title "packet drops: interface down, count"
scalar SingleCell.router.lo[0] packetDropInterfaceDown:sum(packetBytes) 0
attr interpolationmode none
attr recordingmode sum(packetBytes)
attr source packetDropReasonIsInterfaceDown(packetDropped)
attr title "packet drops: interface down, sum(packetBytes)"
scalar SingleCell.router.lo[0] packetDropNoCarrier:count 0
attr interpolationmode none
attr recordingmode count
attr source packetDropReasonIsNoCarrier(packetDropped)
attr title "packet drops: no carrier, count"
scalar SingleCell.router.lo[0] packetDropNoCarrier:sum(packetBytes) 0
attr interpolationmode none
attr recordingmode sum(packetBytes)
attr source packetDropReasonIsNoCarrier(packetDropped)
attr title "packet drops: no carrier, sum(packetBytes)"
par SingleCell.router.ppp[0].phys$i.channel typename "\"ned.IdealChannel\""
par SingleCell.router.ppp[0].ppp.phys$o.channel typename "\"ned.IdealChannel\""
par SingleCell.router.ppp[0].ppp.upperLayerOut.channel typename "\"ned.IdealChannel\""
par SingleCell.router.ppp[0].upperLayerIn.channel typename "\"ned.IdealChannel\""
par SingleCell.router.ppp[0].queue typename "\"inet.queueing.queue.DropTailQueue\""
par SingleCell.router.ppp[0].queue displayStringTextFormat "\"contains %p pk (%l) pushed %u\\npulled %o removed %r dropped %d\""
par SingleCell.router.ppp[0].queue packetCapacity 10000
par SingleCell.router.ppp[0].queue dataCapacity -1b
attr unit b
par SingleCell.router.ppp[0].queue dropperClass "\"inet::queueing::PacketAtCollectionEndDropper\""
par SingleCell.router.ppp[0].queue comparatorClass "\"\""
par SingleCell.router.ppp[0].queue bufferModule "\"\""
scalar SingleCell.router.ppp[0].queue queueLength:last 0
attr autoWarmupFilter false
attr interpolationmode sample-hold
attr recordingmode last
attr source "warmup(atomic(constant0(packetPushEnded) + count(packetPushStarted) - count(packetPulled) - count(packetRemoved) - count(packetDropped)))"
attr title "queue length, last"
attr unit pk
scalar SingleCell.router.ppp[0].queue queueLength:max 0
attr autoWarmupFilter false
attr interpolationmode sample-hold
attr recordingmode max
attr source "warmup(atomic(constant0(packetPushEnded) + count(packetPushStarted) - count(packetPulled) - count(packetRemoved) - count(packetDropped)))"
attr title "queue length, max"
attr unit pk
scalar SingleCell.router.ppp[0].queue queueLength:timeavg nan
attr autoWarmupFilter false
attr interpolationmode sample-hold
attr recordingmode timeavg
attr source "warmup(atomic(constant0(packetPushEnded) + count(packetPushStarted) - count(packetPulled) - count(packetRemoved) - count(packetDropped)))"
attr title "queue length, timeavg"
attr unit pk
scalar SingleCell.router.ppp[0].queue queueBitLength:last 0
attr autoWarmupFilter false
attr interpolationmode sample-hold
attr recordingmode last
attr source "warmup(atomic(constant0(packetPushEnded) + sum(packetLength(packetPushStarted)) - sum(packetLength(packetPulled)) - sum(packetLength(packetRemoved)) - sum(packetLength(packetDropped))))"
attr title "queue bit length, last"
attr unit b
scalar SingleCell.router.ppp[0].queue queueBitLength:max 0
attr autoWarmupFilter false
attr interpolationmode sample-hold
attr recordingmode max
attr source "warmup(atomic(constant0(packetPushEnded) + sum(packetLength(packetPushStarted)) - sum(packetLength(packetPulled)) - sum(packetLength(packetRemoved)) - sum(packetLength(packetDropped))))"
attr title "queue bit length, max"
attr unit b
scalar SingleCell.router.ppp[0].queue queueBitLength:timeavg nan
attr autoWarmupFilter false
attr interpolationmode sample-hold
attr recordingmode timeavg
attr source "warmup(atomic(constant0(packetPushEnded) + sum(packetLength(packetPushStarted)) - sum(packetLength(packetPulled)) - sum(packetLength(packetRemoved)) - sum(packetLength(packetDropped))))"
attr title "queue bit length, timeavg"
attr unit b
statistic SingleCell.router.ppp[0].queue queueingTime:histogram
field count 0
field mean nan
field stddev nan
field min nan
field max nan
field sum 0
field sqrsum 0
attr interpolationmode none
attr recordingmode histogram
attr source queueingTime(packetPulled)
attr title "queueing times"
attr unit s
bin	-inf	0
bin	0	0
bin	1	0
scalar SingleCell.router.ppp[0].queue outgoingPackets:count 0
attr recordingmode count
attr source packetPulled
attr title "outgoing packets, count"
attr unit pk
scalar SingleCell.router.ppp[0].queue outgoingPacketLengths:sum 0
attr interpolationmode none
attr recordingmode sum
attr source packetLength(packetPulled)
attr title "outgoing packet lengths, sum"
attr unit b
statistic SingleCell.router.ppp[0].queue outgoingPacketLengths:histogram
field count 0
field mean nan
field stddev nan
field min nan
field max nan
field sum 0
field sqrsum 0
attr interpolationmode none
attr recordingmode histogram
attr source packetLength(packetPulled)
attr title "outgoing packet lengths"
attr unit b
bin	-inf	0
bin	0	0
bin	1	0
statistic SingleCell.router.ppp[0].queue flowQueueingTime:histogram
field count 0
field mean nan
field stddev nan
field min nan
field max nan
field sum 0
field sqrsum 0
attr interpolationmode none
attr recordingmode histogram
attr source queueingTime(demuxFlow(packetPulled))
attr title "flow queueing times"
attr unit s
bin	-inf	0
bin	0	0
bin	1	0
scalar SingleCell.router.ppp[0].queue incomingPackets:count 0
attr recordingmode count
attr source packetPushStarted
attr title "incoming packets, count"
attr unit pk
scalar SingleCell.router.ppp[0].queue incomingPacketLengths:sum 0
attr interpolationmode none
attr recordingmode sum
attr source packetLength(packetPushStarted)
attr title "incoming packet lengths, sum"
attr unit b
statistic SingleCell.router.ppp[0].queue incomingPacketLengths:histogram
field count 0
field mean nan
field stddev nan
field min nan
field max nan
field sum 0
field sqrsum 0
attr interpolationmode none
attr recordingmode histogram
attr source packetLength(packetPushStarted)
attr title "incoming packet lengths"
attr unit b
bin	-inf	0
bin	0	0
bin	1	0
scalar SingleCell.router.ppp[0].queue droppedPacketsQueueOverflow:count 0
attr interpolationmode none
attr recordingmode count
attr source packetDropReasonIsQueueOverflow(packetDropped)
attr title "dropped packets: queue overflow, count"
attr unit pk
scalar SingleCell.router.ppp[0].queue droppedPacketLengthsQueueOverflow:sum 0
attr interpolationmode none
attr recordingmode sum
attr source packetLength(packetDropReasonIsQueueOverflow(packetDropped))
attr title "dropped packet lengths: queue overflow, sum"
attr unit b
par SingleCell.router.ppp[0].ppp typename "\"inet.linklayer.ppp.Ppp\""
par SingleCell.router.ppp[0].ppp interfaceTableModule "\"SingleCell.router.interfaceTable\""
par SingleCell.router.ppp[0].ppp displayStringTextFormat "\"rate: %b\\nsent: %s, rcvd: %r\\nqueue: %q, drop: %d\""
par SingleCell.router.ppp[0].ppp sendRawBytes false
par SingleCell.router.ppp[0].ppp mtu 4470B
attr unit B
par SingleCell.router.ppp[0].ppp stopOperationExtraTime -1s
attr unit s
par SingleCell.router.ppp[0].ppp stopOperationTimeout 2s
attr unit s
scalar SingleCell.router.ppp[0].ppp txPk:count 0
attr interpolationmode none
attr recordingmode count
attr source packetSentToLower
attr title "packets transmitted, count"
scalar SingleCell.router.ppp[0].ppp txPk:sum(packetBytes) 0
attr interpolationmode none
attr recordingmode sum(packetBytes)
attr source packetSentToLower
attr title "packets transmitted, sum(packetBytes)"
scalar SingleCell.router.ppp[0].ppp rcvdPkFromHl:count 0
attr interpolationmode none
attr recordingmode count
attr source packetReceivedFromUpper
attr title "packets received from higher layer, count"
scalar SingleCell.router.ppp[0].ppp rcvdPkFromHl:sum(packetBytes) 0
attr interpolationmode none
attr recordingmode sum(packetBytes)
attr source packetReceivedFromUpper
attr title "packets received from higher layer, sum(packetBytes)"
scalar SingleCell.router.ppp[0].ppp passedUpPk:count 0
attr interpolationmode none
attr recordingmode count
attr source packetSentToUpper
attr title "packets passed to higher layer, count"
scalar SingleCell.router.ppp[0].ppp passedUpPk:sum(packetBytes) 0
attr interpolationmode none
attr recordingmode sum(packetBytes)
attr source packetSentToUpper
attr title "packets passed to higher layer, sum(packetBytes)"
scalar SingleCell.router.ppp[0].ppp packetDropIncorrectlyReceived:count 0
attr interpolationmode none
attr recordingmode count
attr source packetDropReasonIsIncorrectlyReceived(packetDropped)
attr title "packet drop: incorrectly received, count"
scalar SingleCell.router.ppp[0].ppp packetDropIncorrectlyReceived:sum(packetBytes) 0
attr interpolationmode none
attr recordingmode sum(packetBytes)
attr source packetDropReasonIsIncorrectlyReceived(packetDropped)
attr title "packet drop: incorrectly received, sum(packetBytes)"
scalar SingleCell.router.ppp[0].ppp packetDropInterfaceDown:count 0
attr interpolationmode none
attr recordingmode count
attr source packetDropReasonIsInterfaceDown(packetDropped)
attr title "packet drop: interface down, count"
scalar SingleCell.router.ppp[0].ppp packetDropInterfaceDown:sum(packetBytes) 0
attr interpolationmode none
attr recordingmode sum(packetBytes)
attr source packetDropReasonIsInterfaceDown(packetDropped)
attr title "packet drop: interface down, sum(packetBytes)"
scalar SingleCell.router.ppp[0].ppp rxPkOk:count 0
attr interpolationmode none
attr recordingmode count
attr source rxPkOk
attr title "packets received OK, count"
scalar SingleCell.router.ppp[0].ppp rxPkOk:sum(packetBytes) 0
attr interpolationmode none
attr recordingmode sum(packetBytes)
attr source rxPkOk
attr title "packets received OK, sum(packetBytes)"
scalar SingleCell.router.ppp[0].ppp transmissionState:timeavg nan
attr interpolationmode sample-hold
attr recordingmode timeavg
attr source transmissionStateChanged
attr title "tx state, timeavg"
par SingleCell.router.ppp[0] typename "\"inet.linklayer.ppp.PppInterface\""
par SingleCell.router.ppp[0] displayStringTextFormat "\"%a (%i)\\n%m\""
par SingleCell.router.ppp[0] recordPcap false
par SingleCell.router.ppp[0] numPcapRecorders 0
par SingleCell.router.ppp[0] interfaceTableModule "\"SingleCell.router.interfaceTable\""
scalar SingleCell.router.ppp[0] packetDropInterfaceDown:count 0
attr interpolationmode none
attr recordingmode count
attr source packetDropReasonIsInterfaceDown(packetDropped)
attr title "packet drops: interface down, count"
scalar SingleCell.router.ppp[0] packetDropInterfaceDown:sum(packetBytes) 0
attr interpolationmode none
attr recordingmode sum(packetBytes)
attr source packetDropReasonIsInterfaceDown(packetDropped)
attr title "packet drops: interface down, sum(packetBytes)"
scalar SingleCell.router.ppp[0] packetDropNoCarrier:count 0
attr interpolationmode none
attr recordingmode count
attr source packetDropReasonIsNoCarrier(packetDropped)
attr title "packet drops: no carrier, count"
scalar SingleCell.router.ppp[0] packetDropNoCarrier:sum(packetBytes) 0
attr interpolationmode none
attr recordingmode sum(packetBytes)
attr source packetDropReasonIsNoCarrier(packetDropped)
attr title "packet drops: no carrier, sum(packetBytes)"
par SingleCell.router.ppp[1].phys$i.channel typename "\"ned.IdealChannel\""
par SingleCell.router.ppp[1].ppp.phys$o.channel typename "\"ned.IdealChannel\""
par SingleCell.router.ppp[1].ppp.upperLayerOut.channel typename "\"ned.IdealChannel\""
par SingleCell.router.ppp[1].upperLayerIn.channel typename "\"ned.IdealChannel\""
par SingleCell.router.ppp[1].queue typename "\"inet.queueing.queue.DropTailQueue\""
par SingleCell.router.ppp[1].queue displayStringTextFormat "\"contains %p pk (%l) pushed %u\\npulled %o removed %r dropped %d\""
par SingleCell.router.ppp[1].queue packetCapacity 10000
par SingleCell.router.ppp[1].queue dataCapacity -1b
attr unit b
par SingleCell.router.ppp[1].queue dropperClass "\"inet::queueing::PacketAtCollectionEndDropper\""
par SingleCell.router.ppp[1].queue comparatorClass "\"\""
par SingleCell.router.ppp[1].queue bufferModule "\"\""
scalar SingleCell.router.ppp[1].queue queueLength:last 0
attr autoWarmupFilter false
attr interpolationmode sample-hold
attr recordingmode last
attr source "warmup(atomic(constant0(packetPushEnded) + count(packetPushStarted) - count(packetPulled) - count(packetRemoved) - count(packetDropped)))"
attr title "queue length, last"
attr unit pk
scalar SingleCell.router.ppp[1].queue queueLength:max 0
attr autoWarmupFilter false
attr interpolationmode sample-hold
attr recordingmode max
attr source "warmup(atomic(constant0(packetPushEnded) + count(packetPushStarted) - count(packetPulled) - count(packetRemoved) - count(packetDropped)))"
attr title "queue length, max"
attr unit pk
scalar SingleCell.router.ppp[1].queue queueLength:timeavg nan
attr autoWarmupFilter false
attr interpolationmode sample-hold
attr recordingmode timeavg
attr source "warmup(atomic(constant0(packetPushEnded) + count(packetPushStarted) - count(packetPulled) - count(packetRemoved) - count(packetDropped)))"
attr title "queue length, timeavg"
attr unit pk
scalar SingleCell.router.ppp[1].queue queueBitLength:last 0
attr autoWarmupFilter false
attr interpolationmode sample-hold
attr recordingmode last
attr source "warmup(atomic(constant0(packetPushEnded) + sum(packetLength(packetPushStarted)) - sum(packetLength(packetPulled)) - sum(packetLength(packetRemoved)) - sum(packetLength(packetDropped))))"
attr title "queue bit length, last"
attr unit b
scalar SingleCell.router.ppp[1].queue queueBitLength:max 0
attr autoWarmupFilter false
attr interpolationmode sample-hold
attr recordingmode max
attr source "warmup(atomic(constant0(packetPushEnded) + sum(packetLength(packetPushStarted)) - sum(packetLength(packetPulled)) - sum(packetLength(packetRemoved)) - sum(packetLength(packetDropped))))"
attr title "queue bit length, max"
attr unit b
scalar SingleCell.router.ppp[1].queue queueBitLength:timeavg nan
attr autoWarmupFilter false
attr interpolationmode sample-hold
attr recordingmode timeavg
attr source "warmup(atomic(constant0(packetPushEnded) + sum(packetLength(packetPushStarted)) - sum(packetLength(packetPulled)) - sum(packetLength(packetRemoved)) - sum(packetLength(packetDropped))))"
attr title "queue bit length, timeavg"
attr unit b
statistic SingleCell.router.ppp[1].queue queueingTime:histogram
field count 0
field mean nan
field stddev nan
field min nan
field max nan
field sum 0
field sqrsum 0
attr interpolationmode none
attr recordingmode histogram
attr source queueingTime(packetPulled)
attr title "queueing times"
attr unit s
bin	-inf	0
bin	0	0
bin	1	0
scalar SingleCell.router.ppp[1].queue outgoingPackets:count 0
attr recordingmode count
attr source packetPulled
attr title "outgoing packets, count"
attr unit pk
scalar SingleCell.router.ppp[1].queue outgoingPacketLengths:sum 0
attr interpolationmode none
attr recordingmode sum
attr source packetLength(packetPulled)
attr title "outgoing packet lengths, sum"
attr unit b
statistic SingleCell.router.ppp[1].queue outgoingPacketLengths:histogram
field count 0
field mean nan
field stddev nan
field min nan
field max nan
field sum 0
field sqrsum 0
attr interpolationmode none
attr recordingmode histogram
attr source packetLength(packetPulled)
attr title "outgoing packet lengths"
attr unit b
bin	-inf	0
bin	0	0
bin	1	0
statistic SingleCell.router.ppp[1].queue flowQueueingTime:histogram
field count 0
field mean nan
field stddev nan
field min nan
field max nan
field sum 0
field sqrsum 0
attr interpolationmode none
attr recordingmode histogram
attr source queueingTime(demuxFlow(packetPulled))
attr title "flow queueing times"
attr unit s
bin	-inf	0
bin	0	0
bin	1	0
scalar SingleCell.router.ppp[1].queue incomingPackets:count 0
attr recordingmode count
attr source packetPushStarted
attr title "incoming packets, count"
attr unit pk
scalar SingleCell.router.ppp[1].queue incomingPacketLengths:sum 0
attr interpolationmode none
attr recordingmode sum
attr source packetLength(packetPushStarted)
attr title "incoming packet lengths, sum"
attr unit b
statistic SingleCell.router.ppp[1].queue incomingPacketLengths:histogram
field count 0
field mean nan
field stddev nan
field min nan
field max nan
field sum 0
field sqrsum 0
attr interpolationmode none
attr recordingmode histogram
attr source packetLength(packetPushStarted)
attr title "incoming packet lengths"
attr unit b
bin	-inf	0
bin	0	0
bin	1	0
scalar SingleCell.router.ppp[1].queue droppedPacketsQueueOverflow:count 0
attr interpolationmode none
attr recordingmode count
attr source packetDropReasonIsQueueOverflow(packetDropped)
attr title "dropped packets: queue overflow, count"
attr unit pk
scalar SingleCell.router.ppp[1].queue droppedPacketLengthsQueueOverflow:sum 0
attr interpolationmode none
attr recordingmode sum
attr source packetLength(packetDropReasonIsQueueOverflow(packetDropped))
attr title "dropped packet lengths: queue overflow, sum"
attr unit b
par SingleCell.router.ppp[1].ppp typename "\"inet.linklayer.ppp.Ppp\""
par SingleCell.router.ppp[1].ppp interfaceTableModule "\"SingleCell.router.interfaceTable\""
par SingleCell.router.ppp[1].ppp displayStringTextFormat "\"rate: %b\\nsent: %s, rcvd: %r\\nqueue: %q, drop: %d\""
par SingleCell.router.ppp[1].ppp sendRawBytes false
par SingleCell.router.ppp[1].ppp mtu 4470B
attr unit B
par SingleCell.router.ppp[1].ppp stopOperationExtraTime -1s
attr unit s
par SingleCell.router.ppp[1].ppp stopOperationTimeout 2s
attr unit s
scalar SingleCell.router.ppp[1].ppp txPk:count 0
attr interpolationmode none
attr recordingmode count
attr source packetSentToLower
attr title "packets transmitted, count"
scalar SingleCell.router.ppp[1].ppp txPk:sum(packetBytes) 0
attr interpolationmode none
attr recordingmode sum(packetBytes)
attr source packetSentToLower
attr title "packets transmitted, sum(packetBytes)"
scalar SingleCell.router.ppp[1].ppp rcvdPkFromHl:count 0
attr interpolationmode none
attr recordingmode count
attr source packetReceivedFromUpper
attr title "packets received from higher layer, count"
scalar SingleCell.router.ppp[1].ppp rcvdPkFromHl:sum(packetBytes) 0
attr interpolationmode none
attr recordingmode sum(packetBytes)
attr source packetReceivedFromUpper
attr title "packets received from higher layer, sum(packetBytes)"
scalar SingleCell.router.ppp[1].ppp passedUpPk:count 0
attr interpolationmode none
attr recordingmode count
attr source packetSentToUpper
attr title "packets passed to higher layer, count"
scalar SingleCell.router.ppp[1].ppp passedUpPk:sum(packetBytes) 0
attr interpolationmode none
attr recordingmode sum(packetBytes)
attr source packetSentToUpper
attr title "packets passed to higher layer, sum(packetBytes)"
scalar SingleCell.router.ppp[1].ppp packetDropIncorrectlyReceived:count 0
attr interpolationmode none
attr recordingmode count
attr source packetDropReasonIsIncorrectlyReceived(packetDropped)
attr title "packet drop: incorrectly received, count"
scalar SingleCell.router.ppp[1].ppp packetDropIncorrectlyReceived:sum(packetBytes) 0
attr interpolationmode none
attr recordingmode sum(packetBytes)
attr source packetDropReasonIsIncorrectlyReceived(packetDropped)
attr title "packet drop: incorrectly received, sum(packetBytes)"
scalar SingleCell.router.ppp[1].ppp packetDropInterfaceDown:count 0
attr interpolationmode none
attr recordingmode count
attr source packetDropReasonIsInterfaceDown(packetDropped)
attr title "packet drop: interface down, count"
scalar SingleCell.router.ppp[1].ppp packetDropInterfaceDown:sum(packetBytes) 0
attr interpolationmode none
attr recordingmode sum(packetBytes)
attr source packetDropReasonIsInterfaceDown(packetDropped)
attr title "packet drop: interface down, sum(packetBytes)"
scalar SingleCell.router.ppp[1].ppp rxPkOk:count 0
attr interpolationmode none
attr recordingmode count
attr source rxPkOk
attr title "packets received OK, count"
scalar SingleCell.router.ppp[1].ppp rxPkOk:sum(packetBytes) 0
attr interpolationmode none
attr recordingmode sum(packetBytes)
attr source rxPkOk
attr title "packets received OK, sum(packetBytes)"
scalar SingleCell.router.ppp[1].ppp transmissionState:timeavg nan
attr interpolationmode sample-hold
attr recordingmode timeavg
attr source transmissionStateChanged
attr title "tx state, timeavg"
par SingleCell.router.ppp[1] typename "\"inet.linklayer.ppp.PppInterface\""
par SingleCell.router.ppp[1] displayStringTextFormat "\"%a (%i)\\n%m\""
par SingleCell.router.ppp[1] recordPcap false
par SingleCell.router.ppp[1] numPcapRecorders 0
par SingleCell.router.ppp[1] interfaceTableModule "\"SingleCell.router.interfaceTable\""
scalar SingleCell.router.ppp[1] packetDropInterfaceDown:count 0
attr interpolationmode none
attr recordingmode count
attr source packetDropReasonIsInterfaceDown(packetDropped)
attr title "packet drops: interface down, count"
scalar SingleCell.router.ppp[1] packetDropInterfaceDown:sum(packetBytes) 0
attr interpolationmode none
attr recordingmode sum(packetBytes)
attr source packetDropReasonIsInterfaceDown(packetDropped)
attr title "packet drops: interface down, sum(packetBytes)"
scalar SingleCell.router.ppp[1] packetDropNoCarrier:count 0
attr interpolationmode none
attr recordingmode count
attr source packetDropReasonIsNoCarrier(packetDropped)
attr title "packet drops: no carrier, count"
scalar SingleCell.router.ppp[1] packetDropNoCarrier:sum(packetBytes) 0
attr interpolationmode none
attr recordingmode sum(packetBytes)
attr source packetDropReasonIsNoCarrier(packetDropped)
attr title "packet drops: no carrier, sum(packetBytes)"
par SingleCell.router.ipv4.transportIn.channel typename "\"ned.IdealChannel\""
par SingleCell.router.ipv4.up.out[0].channel typename "\"ned.IdealChannel\""
par SingleCell.router.ipv4.lp.out[2].channel typename "\"ned.IdealChannel\""
par SingleCell.router.ipv4.ifIn.channel typename "\"ned.IdealChannel\""
par SingleCell.router.ipv4.configurator typename "\"inet.networklayer.configurator.ipv4.Ipv4NodeConfigurator\""
par SingleCell.router.ipv4.configurator interfaceTableModule "\"SingleCell.router.interfaceTable\""
par SingleCell.router.ipv4.configurator routingTableModule "\"SingleCell.router.ipv4.routingTable\""
par SingleCell.router.ipv4.configurator networkConfiguratorModule "\"configurator\""
par SingleCell.router.ipv4.configurator configureRoutingTable true
par SingleCell.router.ipv4.routingTable typename "\"inet.networklayer.ipv4.Ipv4RoutingTable\""
par SingleCell.router.ipv4.routingTable interfaceTableModule "\"SingleCell.router.interfaceTable\""
par SingleCell.router.ipv4.routingTable routerId "\"auto\""
par SingleCell.router.ipv4.routingTable netmaskRoutes "\"*\""
par SingleCell.router.ipv4.routingTable forwarding true
par SingleCell.router.ipv4.routingTable multicastForwarding false
par SingleCell.router.ipv4.routingTable useAdminDist false
par SingleCell.router.ipv4.routingTable routingFile "\"\""
par SingleCell.router.ipv4.natTable typename "\"inet.networklayer.ipv4.Ipv4NatTable\""
par SingleCell.router.ipv4.natTable networkProtocolModule "\"^.ip\""
par SingleCell.router.ipv4.natTable config "<config/> at content:1"
par SingleCell.router.ipv4.up typename "\"inet.common.MessageDispatcher\""
par SingleCell.router.ipv4.up displayStringTextFormat "\"processed %p pk (%l)\""
par SingleCell.router.ipv4.up forwardServiceRegistration true
par SingleCell.router.ipv4.up forwardProtocolRegistration true
par SingleCell.router.ipv4.igmp typename "\"inet.networklayer.ipv4.Igmpv2\""
par SingleCell.router.ipv4.igmp interfaceTableModule "\"SingleCell.router.interfaceTable\""
par SingleCell.router.ipv4.igmp routingTableModule "\"SingleCell.router.ipv4.routingTable\""
par SingleCell.router.ipv4.igmp crcMode "\"declared\""
attr enum declared,computed
par SingleCell.router.ipv4.igmp enabled true
par SingleCell.router.ipv4.igmp robustnessVariable 2
par SingleCell.router.ipv4.igmp queryInterval 125s
attr unit s
par SingleCell.router.ipv4.igmp queryResponseInterval 10s
attr unit s
par SingleCell.router.ipv4.igmp groupMembershipInterval 260s
attr unit s
par SingleCell.router.ipv4.igmp otherQuerierPresentInterval 255s
attr unit s
par SingleCell.router.ipv4.igmp startupQueryInterval 31.25s
attr unit s
par SingleCell.router.ipv4.igmp startupQueryCount 2
par SingleCell.router.ipv4.igmp lastMemberQueryInterval 1s
attr unit s
par SingleCell.router.ipv4.igmp lastMemberQueryCount 2
par SingleCell.router.ipv4.igmp unsolicitedReportInterval 10s
attr unit s
par SingleCell.router.ipv4.icmp typename "\"inet.networklayer.ipv4.Icmp\""
par SingleCell.router.ipv4.icmp interfaceTableModule "\"SingleCell.router.interfaceTable\""
par SingleCell.router.ipv4.icmp routingTableModule "\"SingleCell.router.ipv4.routingTable\""
par SingleCell.router.ipv4.icmp crcMode "\"declared\""
attr enum declared,computed
attr mutable ""
par SingleCell.router.ipv4.icmp quoteLength 8B
attr mutable ""
attr unit B
par SingleCell.router.ipv4.mp typename "\"inet.common.MessageDispatcher\""
par SingleCell.router.ipv4.mp displayStringTextFormat "\"processed %p pk (%l)\""
par SingleCell.router.ipv4.mp forwardServiceRegistration true
par SingleCell.router.ipv4.mp forwardProtocolRegistration true
par SingleCell.router.ipv4.ip typename "\"inet.networklayer.ipv4.Ipv4\""
par SingleCell.router.ipv4.ip interfaceTableModule "\"SingleCell.router.interfaceTable\""
par SingleCell.router.ipv4.ip routingTableModule "\"SingleCell.router.ipv4.routingTable\""
par SingleCell.router.ipv4.ip arpModule "\"SingleCell.router.ipv4.arp\""
par SingleCell.router.ipv4.ip icmpModule "\"SingleCell.router.ipv4.icmp\""
par SingleCell.router.ipv4.ip crcMode "\"declared\""
attr enum declared,computed
par SingleCell.router.ipv4.ip timeToLive 32
par SingleCell.router.ipv4.ip multicastTimeToLive 32
par SingleCell.router.ipv4.ip fragmentTimeout 60s
attr unit s
par SingleCell.router.ipv4.ip limitedBroadcast false
par SingleCell.router.ipv4.ip directBroadcastInterfaces "\"\""
scalar SingleCell.router.ipv4.ip packetDropAddressResolutionFailed:count 0
attr interpolationmode none
attr recordingmode count
attr source packetDropReasonIsAddressResolutionFailed(packetDropped)
attr title "packet drop: address resolution failed, count"
scalar SingleCell.router.ipv4.ip packetDropAddressResolutionFailed:sum(packetBytes) 0
attr interpolationmode none
attr recordingmode sum(packetBytes)
attr source packetDropReasonIsAddressResolutionFailed(packetDropped)
attr title "packet drop: address resolution failed, sum(packetBytes)"
scalar SingleCell.router.ipv4.ip packetDropHopLimitReached:count 0
attr interpolationmode none
attr recordingmode count
attr source packetDropReasonIsHopLimitReached(packetDropped)
attr title "packet drop: hop limit reached, count"
scalar SingleCell.router.ipv4.ip packetDropHopLimitReached:sum(packetBytes) 0
attr interpolationmode none
attr recordingmode sum(packetBytes)
attr source packetDropReasonIsHopLimitReached(packetDropped)
attr title "packet drop: hop limit reached, sum(packetBytes)"
scalar SingleCell.router.ipv4.ip packetDropForwardingDisabled:count 0
attr interpolationmode none
attr recordingmode count
attr source packetDropReasonIsForwardingDisabled(packetDropped)
attr title "packet drop: forwarding disabled, count"
scalar SingleCell.router.ipv4.ip packetDropForwardingDisabled:sum(packetBytes) 0
attr interpolationmode none
attr recordingmode sum(packetBytes)
attr source packetDropReasonIsForwardingDisabled(packetDropped)
attr title "packet drop: forwarding disabled, sum(packetBytes)"
scalar SingleCell.router.ipv4.ip packetDropNoInterfaceFound:count 0
attr interpolationmode none
attr recordingmode count
attr source packetDropReasonIsNoInterfaceFound(packetDropped)
attr title "packet drop: no interface found, count"
scalar SingleCell.router.ipv4.ip packetDropNoInterfaceFound:sum(packetBytes) 0
attr interpolationmode none
attr recordingmode sum(packetBytes)
attr source packetDropReasonIsNoInterfaceFound(packetDropped)
attr title "packet drop: no interface found, sum(packetBytes)"
scalar SingleCell.router.ipv4.ip packetDropNoRouteFound:count 0
attr interpolationmode none
attr recordingmode count
attr source packetDropReasonIsNoRouteFound(packetDropped)
attr title "packet drop: no route found, count"
scalar SingleCell.router.ipv4.ip packetDropNoRouteFound:sum(packetBytes) 0
attr interpolationmode none
attr recordingmode sum(packetBytes)
attr source packetDropReasonIsNoRouteFound(packetDropped)
attr title "packet drop: no route found, sum(packetBytes)"
scalar SingleCell.router.ipv4.ip packetDropUndefined:count 0
attr interpolationmode none
attr recordingmode count
attr source packetDropReasonIsUndefined(packetDropped)
attr title "packet drop: undefined, count"
scalar SingleCell.router.ipv4.ip packetDropUndefined:sum(packetBytes) 0
attr interpolationmode none
attr recordingmode sum(packetBytes)
attr source packetDropReasonIsUndefined(packetDropped)
attr title "packet drop: undefined, sum(packetBytes)"
par SingleCell.router.ipv4.arp typename "\"inet.networklayer.arp.ipv4.Arp\""
par SingleCell.router.ipv4.arp interfaceTableModule "\"SingleCell.router.interfaceTable\""
par SingleCell.router.ipv4.arp routingTableModule "\"SingleCell.router.ipv4.routingTable\""
par SingleCell.router.ipv4.arp retryTimeout 1s
attr unit s
par SingleCell.router.ipv4.arp retryCount 3
par SingleCell.router.ipv4.arp cacheTimeout 120s
attr unit s
par SingleCell.router.ipv4.arp proxyArpInterfaces "\"*\""
scalar SingleCell.router.ipv4.arp arpReplySent:count 0
attr recordingmode count
attr source arpReplySent
attr title "ARP replies sent, count"
scalar SingleCell.router.ipv4.arp arpReplySent:sum(packetBytes) 0
attr recordingmode sum(packetBytes)
attr source arpReplySent
attr title "ARP replies sent, sum(packetBytes)"
scalar SingleCell.router.ipv4.arp arpRequestSent:count 0
attr recordingmode count
attr source arpRequestSent
attr title "ARP request sent, count"
scalar SingleCell.router.ipv4.arp arpRequestSent:sum(packetBytes) 0
attr recordingmode sum(packetBytes)
attr source arpRequestSent
attr title "ARP request sent, sum(packetBytes)"
scalar SingleCell.router.ipv4.arp arpResolutionFailed:count 0
attr recordingmode count
attr title "ARP failed resolutions, count"
scalar SingleCell.router.ipv4.arp arpResolutionCompleted:count 0
attr recordingmode count
attr title "ARP completed resolutions, count"
scalar SingleCell.router.ipv4.arp arpResolutionInitiated:count 0
attr recordingmode count
attr title "ARP initiated resolutions, count"
par SingleCell.router.ipv4.lp typename "\"inet.common.MessageDispatcher\""
par SingleCell.router.ipv4.lp displayStringTextFormat "\"processed %p pk (%l)\""
par SingleCell.router.ipv4.lp forwardServiceRegistration true
par SingleCell.router.ipv4.lp forwardProtocolRegistration true
par SingleCell.router.ipv4 typename "\"inet.networklayer.ipv4.Ipv4NetworkLayer\""
par SingleCell.router.ipv4 forwarding true
par SingleCell.router.ipv4 multicastForwarding false
par SingleCell.router.ipv4 interfaceTableModule "\"SingleCell.router.interfaceTable\""
par SingleCell.router.ipv4 displayStringTextFormat "\"%i\""
par SingleCell.router.nl typename "\"inet.common.MessageDispatcher\""
par SingleCell.router.nl displayStringTextFormat "\"processed %p pk (%l)\""
par SingleCell.router.nl forwardServiceRegistration true
par SingleCell.router.nl forwardProtocolRegistration true
par SingleCell.router.tn typename "\"inet.common.MessageDispatcher\""
par SingleCell.router.tn displayStringTextFormat "\"processed %p pk (%l)\""
par SingleCell.router.tn forwardServiceRegistration true
par SingleCell.router.tn forwardProtocolRegistration true
par SingleCell.router.at typename "\"inet.common.MessageDispatcher\""
par SingleCell.router.at displayStringTextFormat "\"processed %p pk (%l)\""
par SingleCell.router.at forwardServiceRegistration true
par SingleCell.router.at forwardProtocolRegistration true
par SingleCell.router typename "\"inet.node.inet.Router\""
par SingleCell.router hasStatus false
par SingleCell.router osgModel "\"\""
par SingleCell.router osgModelColor "\"\""
par SingleCell.router canvasImage "\"\""
par SingleCell.router canvasImageColor "\"\""
par SingleCell.router recordPcap false
par SingleCell.router numPcapRecorders 0
par SingleCell.router numLoInterfaces 1
par SingleCell.router numWlanInterfaces 0
par SingleCell.router numEthInterfaces 0
par SingleCell.router numPppInterfaces 0
par SingleCell.router numTunInterfaces 0
par SingleCell.router numVirtInterfaces 0
par SingleCell.router fcsMode "\"declared\""
attr enum declared,computed
par SingleCell.router hasIpv4 true
par SingleCell.router hasIpv6 false
par SingleCell.router hasGn false
par SingleCell.router forwarding true
par SingleCell.router multicastForwarding false
par SingleCell.router hasUdp false
par SingleCell.router hasTcp false
par SingleCell.router hasSctp false
par SingleCell.router numApps 0
par SingleCell.router hasEigrp false
par SingleCell.router hasOspf false
par SingleCell.router hasRip false
par SingleCell.router hasBgp false
par SingleCell.router hasPim false
par SingleCell.router hasDhcp false
par SingleCell.pgw.pppg$i[0].channel typename "\"ned.IdealChannel\""
par SingleCell.pgw.ppp[0].phys$o.channel typename "\"ned.IdealChannel\""
par SingleCell.pgw.interfaceTable typename "\"inet.networklayer.common.InterfaceTable\""
par SingleCell.pgw.interfaceTable displayAddresses false
par SingleCell.pgw.cb typename "\"inet.common.MessageDispatcher\""
par SingleCell.pgw.cb displayStringTextFormat "\"processed %p pk (%l)\""
par SingleCell.pgw.cb forwardServiceRegistration true
par SingleCell.pgw.cb forwardProtocolRegistration true
par SingleCell.pgw.bl typename "\"inet.common.MessageDispatcher\""
par SingleCell.pgw.bl displayStringTextFormat "\"processed %p pk (%l)\""
par SingleCell.pgw.bl forwardServiceRegistration true
par SingleCell.pgw.bl forwardProtocolRegistration true
par SingleCell.pgw.li typename "\"inet.common.MessageDispatcher\""
par SingleCell.pgw.li displayStringTextFormat "\"processed %p pk (%l)\""
par SingleCell.pgw.li forwardServiceRegistration true
par SingleCell.pgw.li forwardProtocolRegistration true
par SingleCell.pgw.lo[0].upperLayerIn.channel typename "\"ned.IdealChannel\""
par SingleCell.pgw.lo[0].lo.upperLayerOut.channel typename "\"ned.IdealChannel\""
par SingleCell.pgw.lo[0].lo typename "\"inet.linklayer.loopback.Loopback\""
par SingleCell.pgw.lo[0].lo interfaceTableModule "\"SingleCell.pgw.interfaceTable\""
par SingleCell.pgw.lo[0].lo mtu 4470B
attr unit B
scalar SingleCell.pgw.lo[0].lo rcvdPkFromHl:count 0
attr interpolationmode none
attr recordingmode count
attr source packetReceivedFromUpper
attr title "packets received from higher layer, count"
scalar SingleCell.pgw.lo[0].lo rcvdPkFromHl:sum(packetBytes) 0
attr interpolationmode none
attr recordingmode sum(packetBytes)
attr source packetReceivedFromUpper
attr title "packets received from higher layer, sum(packetBytes)"
scalar SingleCell.pgw.lo[0].lo passedUpPk:count 0
attr interpolationmode none
attr recordingmode count
attr source packetSentToUpper
attr title "packets passed to higher layer, count"
scalar SingleCell.pgw.lo[0].lo passedUpPk:sum(packetBytes) 0
attr interpolationmode none
attr recordingmode sum(packetBytes)
attr source packetSentToUpper
attr title "packets passed to higher layer, sum(packetBytes)"
par SingleCell.pgw.lo[0] typename "\"inet.linklayer.loopback.LoopbackInterface\""
par SingleCell.pgw.lo[0] displayStringTextFormat "\"%a (%i)\\n%m\""
par SingleCell.pgw.lo[0] recordPcap false
par SingleCell.pgw.lo[0] numPcapRecorders 0
par SingleCell.pgw.lo[0] interfaceTableModule "\"SingleCell.pgw.interfaceTable\""
scalar SingleCell.pgw.lo[0] packetDropInterfaceDown:count 0
attr interpolationmode none
attr recordingmode count
attr source packetDropReasonIsInterfaceDown(packetDropped)
attr title "packet drops: interface down, count"
scalar SingleCell.pgw.lo[0] packetDropInterfaceDown:sum(packetBytes) 0
attr interpolationmode none
attr recordingmode sum(packetBytes)
attr source packetDropReasonIsInterfaceDown(packetDropped)
attr title "packet drops: interface down, sum(packetBytes)"
scalar SingleCell.pgw.lo[0] packetDropNoCarrier:count 0
attr interpolationmode none
attr recordingmode count
attr source packetDropReasonIsNoCarrier(packetDropped)
attr title "packet drops: no carrier, count"
scalar SingleCell.pgw.lo[0] packetDropNoCarrier:sum(packetBytes) 0
attr interpolationmode none
attr recordingmode sum(packetBytes)
attr source packetDropReasonIsNoCarrier(packetDropped)
attr title "packet drops: no carrier, sum(packetBytes)"
par SingleCell.pgw.ppp[0].phys$i.channel typename "\"ned.IdealChannel\""
par SingleCell.pgw.ppp[0].ppp.phys$o.channel typename "\"ned.IdealChannel\""
par SingleCell.pgw.ppp[0].ppp.upperLayerOut.channel typename "\"ned.IdealChannel\""
par SingleCell.pgw.ppp[0].upperLayerIn.channel typename "\"ned.IdealChannel\""
par SingleCell.pgw.ppp[0].queue typename "\"inet.queueing.queue.DropTailQueue\""
par SingleCell.pgw.ppp[0].queue displayStringTextFormat "\"contains %p pk (%l) pushed %u\\npulled %o removed %r dropped %d\""
par SingleCell.pgw.ppp[0].queue packetCapacity 10000
par SingleCell.pgw.ppp[0].queue dataCapacity -1b
attr unit b
par SingleCell.pgw.ppp[0].queue dropperClass "\"inet::queueing::PacketAtCollectionEndDropper\""
par SingleCell.pgw.ppp[0].queue comparatorClass "\"\""
par SingleCell.pgw.ppp[0].queue bufferModule "\"\""
scalar SingleCell.pgw.ppp[0].queue queueLength:last 0
attr autoWarmupFilter false
attr interpolationmode sample-hold
attr recordingmode last
attr source "warmup(atomic(constant0(packetPushEnded) + count(packetPushStarted) - count(packetPulled) - count(packetRemoved) - count(packetDropped)))"
attr title "queue length, last"
attr unit pk
scalar SingleCell.pgw.ppp[0].queue queueLength:max 0
attr autoWarmupFilter false
attr interpolationmode sample-hold
attr recordingmode max
attr source "warmup(atomic(constant0(packetPushEnded) + count(packetPushStarted) - count(packetPulled) - count(packetRemoved) - count(packetDropped)))"
attr title "queue length, max"
attr unit pk
scalar SingleCell.pgw.ppp[0].queue queueLength:timeavg nan
attr autoWarmupFilter false
attr interpolationmode sample-hold
attr recordingmode timeavg
attr source "warmup(atomic(constant0(packetPushEnded) + count(packetPushStarted) - count(packetPulled) - count(packetRemoved) - count(packetDropped)))"
attr title "queue length, timeavg"
attr unit pk
scalar SingleCell.pgw.ppp[0].queue queueBitLength:last 0
attr autoWarmupFilter false
attr interpolationmode sample-hold
attr recordingmode last
[...]
par SingleCell.ue[0].cellularNic.dlFbGen feedbackType "\"ALLBANDS\""
par SingleCell.ue[0].cellularNic.dlFbGen rbAllocationType "\"localized\""
par SingleCell.ue[0].cellularNic.dlFbGen fbPeriod 6
par SingleCell.ue[0].cellularNic.dlFbGen fbDelay 1
par SingleCell.ue[0].cellularNic.dlFbGen usePeriodic true
par SingleCell.ue[0].cellularNic.dlFbGen initialTxMode "\"SINGLE_ANTENNA_PORT0\""
par SingleCell.ue[0].cellularNic.dlFbGen feedbackGeneratorType "\"IDEAL\""
par SingleCell.ue[0].cellularNic typename "\"simu5g.stack.LteNicUe\""
par SingleCell.ue[0].cellularNic displayStringTextFormat "\"%a (%i)\\n%m\""
par SingleCell.ue[0].cellularNic recordPcap false
par SingleCell.ue[0].cellularNic numPcapRecorders 0
par SingleCell.ue[0].cellularNic isWireless true
par SingleCell.ue[0].cellularNic interfaceTableModule "\"SingleCell.ue[0].interfaceTable\""
par SingleCell.ue[0].cellularNic routingTableModule "\"^.ipv4.routingTable\""
par SingleCell.ue[0].cellularNic LtePdcpRrcType "\"LtePdcpRrcUe\""
par SingleCell.ue[0].cellularNic LteMacType "\"LteMacUe\""
par SingleCell.ue[0].cellularNic PacketFlowManagerType "\"PacketFlowManagerUe\""
par SingleCell.ue[0].cellularNic hasRNISupport false
par SingleCell.ue[0].cellularNic LtePhyType "\"LtePhyUe\""
par SingleCell.ue[0].cellularNic nodeType "\"UE\""
par SingleCell.ue[0].cellularNic processingDelayIn 0s
attr unit s
par SingleCell.ue[0].cellularNic processingDelayOut 0s
attr unit s
par SingleCell.ue[0].cellularNic LteChannelModelType "\"LteRealisticChannelModel\""
par SingleCell.ue[0].cellularNic d2dCapable false
par SingleCell.ue[0].cellularNic dualConnectivityEnabled false
par SingleCell.ue[0].cellularNic numCarriers 1
par SingleCell.ue[0].cellularNic address "\"0A-AA-00-00-00-02\""
attr mutable ""
scalar SingleCell.ue[0].cellularNic packetDropInterfaceDown:count 0
attr interpolationmode none
attr recordingmode count
attr source packetDropReasonIsInterfaceDown(packetDropped)
attr title "packet drops: interface down, count"
scalar SingleCell.ue[0].cellularNic packetDropInterfaceDown:sum(packetBytes) 0
attr interpolationmode none
attr recordingmode sum(packetBytes)
attr source packetDropReasonIsInterfaceDown(packetDropped)
attr title "packet drops: interface down, sum(packetBytes)"
scalar SingleCell.ue[0].cellularNic packetDropNoCarrier:count 0
attr interpolationmode none
attr recordingmode count
attr source packetDropReasonIsNoCarrier(packetDropped)
attr title "packet drops: no carrier, count"
scalar SingleCell.ue[0].cellularNic packetDropNoCarrier:sum(packetBytes) 0
attr interpolationmode none
attr recordingmode sum(packetBytes)
attr source packetDropReasonIsNoCarrier(packetDropped)
attr title "packet drops: no carrier, sum(packetBytes)"
par SingleCell.ue[0].encap typename "\"inet.linklayer.ethernet.basic.EthernetEncapsulation\""
par SingleCell.ue[0].encap registerProtocol true
par SingleCell.ue[0].encap interfaceTableModule "\"SingleCell.ue[0].interfaceTable\""
par SingleCell.ue[0].encap fcsMode "\"declared\""
attr enum declared,computed
par SingleCell.ue[0].encap stopOperationExtraTime -1s
attr unit s
par SingleCell.ue[0].encap stopOperationTimeout 2s
attr unit s
scalar SingleCell.ue[0].encap decapPk:count 0
attr interpolationmode none
attr recordingmode count
attr source decapPk
attr title "packets decapsulated, count"
scalar SingleCell.ue[0].encap decapPk:sum(packetBytes) 0
attr interpolationmode none
attr recordingmode sum(packetBytes)
attr source decapPk
attr title "packets decapsulated, sum(packetBytes)"
scalar SingleCell.ue[0].encap encapPk:count 0
attr interpolationmode none
attr recordingmode count
attr source encapPk
attr title "packets encapsulated, count"
scalar SingleCell.ue[0].encap encapPk:sum(packetBytes) 0
attr interpolationmode none
attr recordingmode sum(packetBytes)
attr source encapPk
attr title "packets encapsulated, sum(packetBytes)"
scalar SingleCell.ue[0].encap pauseSent:count 0
attr recordingmode count
attr title "pause sent, count"
scalar SingleCell.ue[0].encap pauseSent:sum 0
attr recordingmode sum
attr title "pause sent, sum"
par SingleCell.ue[0].ipv4.transportIn.channel typename "\"ned.IdealChannel\""
par SingleCell.ue[0].ipv4.up.out[0].channel typename "\"ned.IdealChannel\""
par SingleCell.ue[0].ipv4.lp.out[2].channel typename "\"ned.IdealChannel\""
par SingleCell.ue[0].ipv4.ifIn.channel typename "\"ned.IdealChannel\""
par SingleCell.ue[0].ipv4.configurator typename "\"inet.networklayer.configurator.ipv4.Ipv4NodeConfigurator\""
par SingleCell.ue[0].ipv4.configurator interfaceTableModule "\"SingleCell.ue[0].interfaceTable\""
par SingleCell.ue[0].ipv4.configurator routingTableModule "\"SingleCell.ue[0].ipv4.routingTable\""
par SingleCell.ue[0].ipv4.configurator networkConfiguratorModule "\"configurator\""
par SingleCell.ue[0].ipv4.configurator configureRoutingTable true
par SingleCell.ue[0].ipv4.routingTable typename "\"inet.networklayer.ipv4.Ipv4RoutingTable\""
par SingleCell.ue[0].ipv4.routingTable interfaceTableModule "\"SingleCell.ue[0].interfaceTable\""
par SingleCell.ue[0].ipv4.routingTable routerId "\"auto\""
par SingleCell.ue[0].ipv4.routingTable netmaskRoutes "\"*\""
par SingleCell.ue[0].ipv4.routingTable forwarding false
par SingleCell.ue[0].ipv4.routingTable multicastForwarding false
par SingleCell.ue[0].ipv4.routingTable useAdminDist false
par SingleCell.ue[0].ipv4.routingTable routingFile "\"\""
par SingleCell.ue[0].ipv4.natTable typename "\"inet.networklayer.ipv4.Ipv4NatTable\""
par SingleCell.ue[0].ipv4.natTable networkProtocolModule "\"^.ip\""
par SingleCell.ue[0].ipv4.natTable config "<config/> at content:1"
par SingleCell.ue[0].ipv4.up typename "\"inet.common.MessageDispatcher\""
par SingleCell.ue[0].ipv4.up displayStringTextFormat "\"processed %p pk (%l)\""
par SingleCell.ue[0].ipv4.up forwardServiceRegistration true
par SingleCell.ue[0].ipv4.up forwardProtocolRegistration true
par SingleCell.ue[0].ipv4.igmp typename "\"inet.networklayer.ipv4.Igmpv2\""
par SingleCell.ue[0].ipv4.igmp interfaceTableModule "\"SingleCell.ue[0].interfaceTable\""
par SingleCell.ue[0].ipv4.igmp routingTableModule "\"SingleCell.ue[0].ipv4.routingTable\""
par SingleCell.ue[0].ipv4.igmp crcMode "\"declared\""
attr enum declared,computed
par SingleCell.ue[0].ipv4.igmp enabled true
par SingleCell.ue[0].ipv4.igmp robustnessVariable 2
par SingleCell.ue[0].ipv4.igmp queryInterval 125s
attr unit s
par SingleCell.ue[0].ipv4.igmp queryResponseInterval 10s
attr unit s
par SingleCell.ue[0].ipv4.igmp groupMembershipInterval 260s
attr unit s
par SingleCell.ue[0].ipv4.igmp otherQuerierPresentInterval 255s
attr unit s
par SingleCell.ue[0].ipv4.igmp startupQueryInterval 31.25s
attr unit s
par SingleCell.ue[0].ipv4.igmp startupQueryCount 2
par SingleCell.ue[0].ipv4.igmp lastMemberQueryInterval 1s
attr unit s
par SingleCell.ue[0].ipv4.igmp lastMemberQueryCount 2
par SingleCell.ue[0].ipv4.igmp unsolicitedReportInterval 10s
attr unit s
par SingleCell.ue[0].ipv4.icmp typename "\"inet.networklayer.ipv4.Icmp\""
par SingleCell.ue[0].ipv4.icmp interfaceTableModule "\"SingleCell.ue[0].interfaceTable\""
par SingleCell.ue[0].ipv4.icmp routingTableModule "\"SingleCell.ue[0].ipv4.routingTable\""
par SingleCell.ue[0].ipv4.icmp crcMode "\"declared\""
attr enum declared,computed
attr mutable ""
par SingleCell.ue[0].ipv4.icmp quoteLength 8B
attr mutable ""
attr unit B
par SingleCell.ue[0].ipv4.mp typename "\"inet.common.MessageDispatcher\""
par SingleCell.ue[0].ipv4.mp displayStringTextFormat "\"processed %p pk (%l)\""
par SingleCell.ue[0].ipv4.mp forwardServiceRegistration true
par SingleCell.ue[0].ipv4.mp forwardProtocolRegistration true
par SingleCell.ue[0].ipv4.ip typename "\"inet.networklayer.ipv4.Ipv4\""
par SingleCell.ue[0].ipv4.ip interfaceTableModule "\"SingleCell.ue[0].interfaceTable\""
par SingleCell.ue[0].ipv4.ip routingTableModule "\"SingleCell.ue[0].ipv4.routingTable\""
par SingleCell.ue[0].ipv4.ip arpModule "\"SingleCell.ue[0].ipv4.arp\""
par SingleCell.ue[0].ipv4.ip icmpModule "\"SingleCell.ue[0].ipv4.icmp\""
par SingleCell.ue[0].ipv4.ip crcMode "\"declared\""
attr enum declared,computed
par SingleCell.ue[0].ipv4.ip timeToLive 32
par SingleCell.ue[0].ipv4.ip multicastTimeToLive 32
par SingleCell.ue[0].ipv4.ip fragmentTimeout 60s
attr unit s
par SingleCell.ue[0].ipv4.ip limitedBroadcast false
par SingleCell.ue[0].ipv4.ip directBroadcastInterfaces "\"\""
scalar SingleCell.ue[0].ipv4.ip packetDropAddressResolutionFailed:count 0
attr interpolationmode none
attr recordingmode count
attr source packetDropReasonIsAddressResolutionFailed(packetDropped)
attr title "packet drop: address resolution failed, count"
scalar SingleCell.ue[0].ipv4.ip packetDropAddressResolutionFailed:sum(packetBytes) 0
attr interpolationmode none
attr recordingmode sum(packetBytes)
attr source packetDropReasonIsAddressResolutionFailed(packetDropped)
attr title "packet drop: address resolution failed, sum(packetBytes)"
scalar SingleCell.ue[0].ipv4.ip packetDropHopLimitReached:count 0
attr interpolationmode none
attr recordingmode count
attr source packetDropReasonIsHopLimitReached(packetDropped)
attr title "packet drop: hop limit reached, count"
scalar SingleCell.ue[0].ipv4.ip packetDropHopLimitReached:sum(packetBytes) 0
attr interpolationmode none
attr recordingmode sum(packetBytes)
attr source packetDropReasonIsHopLimitReached(packetDropped)
attr title "packet drop: hop limit reached, sum(packetBytes)"
scalar SingleCell.ue[0].ipv4.ip packetDropForwardingDisabled:count 0
attr interpolationmode none
attr recordingmode count
attr source packetDropReasonIsForwardingDisabled(packetDropped)
attr title "packet drop: forwarding disabled, count"
scalar SingleCell.ue[0].ipv4.ip packetDropForwardingDisabled:sum(packetBytes) 0
attr interpolationmode none
attr recordingmode sum(packetBytes)
attr source packetDropReasonIsForwardingDisabled(packetDropped)
attr title "packet drop: forwarding disabled, sum(packetBytes)"
scalar SingleCell.ue[0].ipv4.ip packetDropNoInterfaceFound:count 0
attr interpolationmode none
attr recordingmode count
attr source packetDropReasonIsNoInterfaceFound(packetDropped)
attr title "packet drop: no interface found, count"
scalar SingleCell.ue[0].ipv4.ip packetDropNoInterfaceFound:sum(packetBytes) 0
attr interpolationmode none
attr recordingmode sum(packetBytes)
attr source packetDropReasonIsNoInterfaceFound(packetDropped)
attr title "packet drop: no interface found, sum(packetBytes)"
scalar SingleCell.ue[0].ipv4.ip packetDropNoRouteFound:count 0
attr interpolationmode none
attr recordingmode count
attr source packetDropReasonIsNoRouteFound(packetDropped)
attr title "packet drop: no route found, count"
scalar SingleCell.ue[0].ipv4.ip packetDropNoRouteFound:sum(packetBytes) 0
attr interpolationmode none
attr recordingmode sum(packetBytes)
attr source packetDropReasonIsNoRouteFound(packetDropped)
attr title "packet drop: no route found, sum(packetBytes)"
scalar SingleCell.ue[0].ipv4.ip packetDropUndefined:count 0
attr interpolationmode none
attr recordingmode count
attr source packetDropReasonIsUndefined(packetDropped)
attr title "packet drop: undefined, count"
scalar SingleCell.ue[0].ipv4.ip packetDropUndefined:sum(packetBytes) 0
attr interpolationmode none
attr recordingmode sum(packetBytes)
attr source packetDropReasonIsUndefined(packetDropped)
attr title "packet drop: undefined, sum(packetBytes)"
par SingleCell.ue[0].ipv4.arp typename "\"inet.networklayer.arp.ipv4.Arp\""
par SingleCell.ue[0].ipv4.arp interfaceTableModule "\"SingleCell.ue[0].interfaceTable\""
par SingleCell.ue[0].ipv4.arp routingTableModule "\"SingleCell.ue[0].ipv4.routingTable\""
par SingleCell.ue[0].ipv4.arp retryTimeout 1s
attr unit s
par SingleCell.ue[0].ipv4.arp retryCount 3
par SingleCell.ue[0].ipv4.arp cacheTimeout 120s
attr unit s
par SingleCell.ue[0].ipv4.arp proxyArpInterfaces "\"*\""
scalar SingleCell.ue[0].ipv4.arp arpReplySent:count 0
attr recordingmode count
attr source arpReplySent
attr title "ARP replies sent, count"
scalar SingleCell.ue[0].ipv4.arp arpReplySent:sum(packetBytes) 0
attr recordingmode sum(packetBytes)
attr source arpReplySent
attr title "ARP replies sent, sum(packetBytes)"
scalar SingleCell.ue[0].ipv4.arp arpRequestSent:count 0
attr recordingmode count
attr source arpRequestSent
attr title "ARP request sent, count"
scalar SingleCell.ue[0].ipv4.arp arpRequestSent:sum(packetBytes) 0
attr recordingmode sum(packetBytes)
attr source arpRequestSent
attr title "ARP request sent, sum(packetBytes)"
scalar SingleCell.ue[0].ipv4.arp arpResolutionFailed:count 0
attr recordingmode count
attr title "ARP failed resolutions, count"
scalar SingleCell.ue[0].ipv4.arp arpResolutionCompleted:count 0
attr recordingmode count
attr title "ARP completed resolutions, count"
scalar SingleCell.ue[0].ipv4.arp arpResolutionInitiated:count 0
attr recordingmode count
attr title "ARP initiated resolutions, count"
par SingleCell.ue[0].ipv4.lp typename "\"inet.common.MessageDispatcher\""
par SingleCell.ue[0].ipv4.lp displayStringTextFormat "\"processed %p pk (%l)\""
par SingleCell.ue[0].ipv4.lp forwardServiceRegistration true
par SingleCell.ue[0].ipv4.lp forwardProtocolRegistration true
par SingleCell.ue[0].ipv4 typename "\"inet.networklayer.ipv4.Ipv4NetworkLayer\""
par SingleCell.ue[0].ipv4 forwarding false
par SingleCell.ue[0].ipv4 multicastForwarding false
par SingleCell.ue[0].ipv4 interfaceTableModule "\"SingleCell.ue[0].interfaceTable\""
par SingleCell.ue[0].ipv4 displayStringTextFormat "\"%i\""
par SingleCell.ue[0].udp typename "\"inet.transportlayer.udp.Udp\""
par SingleCell.ue[0].udp interfaceTableModule "\"SingleCell.ue[0].interfaceTable\""
par SingleCell.ue[0].udp icmpModule "\"^.ipv4.icmp\""
par SingleCell.ue[0].udp icmpv6Module "\"^.ipv6.icmpv6\""
par SingleCell.ue[0].udp crcMode "\"declared\""
attr enum disabled,declared,computed
par SingleCell.ue[0].udp defaultMulticastLoop true
scalar SingleCell.ue[0].udp packetReceived:count 0
attr interpolationmode none
attr recordingmode count
attr source packetReceived
attr title "packets received, count"
scalar SingleCell.ue[0].udp packetReceived:sum(packetBytes) 0
attr interpolationmode none
attr recordingmode sum(packetBytes)
attr source packetReceived
attr title "packets received, sum(packetBytes)"
scalar SingleCell.ue[0].udp packetSent:count 0
attr interpolationmode none
attr recordingmode count
attr source packetSent
attr title "packets sent, count"
scalar SingleCell.ue[0].udp packetSent:sum(packetBytes) 0
attr interpolationmode none
attr recordingmode sum(packetBytes)
attr source packetSent
attr title "packets sent, sum(packetBytes)"
scalar SingleCell.ue[0].udp passedUpPk:count 0
attr interpolationmode none
attr recordingmode count
attr source packetSentToUpper
attr title "packets passed up, count"
scalar SingleCell.ue[0].udp droppedPkWrongPort:count 0
attr interpolationmode none
attr recordingmode count
attr source packetDropReasonIsNoPortFound(packetDropped)
attr title "packets dropped (wrong port), count"
scalar SingleCell.ue[0].udp droppedPkBadChecksum:count 0
attr interpolationmode none
attr recordingmode count
attr source packetDropReasonIsIncorrectlyReceived(packetDropped)
attr title "packets dropped (checksum error), count"
par SingleCell.ue[0].tcp typename "\"inet.transportlayer.tcp.Tcp\""
par SingleCell.ue[0].tcp crcMode "\"declared\""
attr enum declared,computed
par SingleCell.ue[0].tcp advertisedWindow 7504
par SingleCell.ue[0].tcp delayedAcksEnabled false
par SingleCell.ue[0].tcp nagleEnabled true
par SingleCell.ue[0].tcp limitedTransmitEnabled false
par SingleCell.ue[0].tcp increasedIWEnabled false
par SingleCell.ue[0].tcp sackSupport false
par SingleCell.ue[0].tcp windowScalingSupport false
par SingleCell.ue[0].tcp windowScalingFactor -1
par SingleCell.ue[0].tcp timestampSupport false
par SingleCell.ue[0].tcp mss 536
par SingleCell.ue[0].tcp msl 120s
attr unit s
par SingleCell.ue[0].tcp tcpAlgorithmClass "\"TcpReno\""
par SingleCell.ue[0].tcp useDataNotification false
par SingleCell.ue[0].tcp dupthresh 3
par SingleCell.ue[0].tcp initialSsthresh 4294967295
par SingleCell.ue[0].tcp stopOperationExtraTime 0s
attr unit s
par SingleCell.ue[0].tcp stopOperationTimeout 2s
attr unit s
par SingleCell.ue[0].tcp ecnWillingness false
par SingleCell.ue[0].tcp dctcpGamma 0.0625
par SingleCell.ue[0].app[0] typename "\"simu5g.apps.voip.VoIPReceiver\""
par SingleCell.ue[0].app[0] localPort 3000
par SingleCell.ue[0].app[0] emodel_Ie_ 5
par SingleCell.ue[0].app[0] emodel_Bpl_ 10
par SingleCell.ue[0].app[0] emodel_A_ 5
par SingleCell.ue[0].app[0] emodel_Ro_ 93.2
par SingleCell.ue[0].app[0] playout_delay 0s
attr unit s
par SingleCell.ue[0].app[0] dim_buffer 20
par SingleCell.ue[0].app[0] sampling_time 0.02s
attr unit s
scalar SingleCell.ue[0].app[0] voIPReceivedThroughput:mean nan
attr recordingmode mean
attr source voIPReceivedThroughput
attr title "Throughput received at the application level, mean"
attr unit Bps
scalar SingleCell.ue[0].app[0] voIPTaildropLoss:mean nan
attr recordingmode mean
attr source voIPTaildropLoss
attr title "VoIP Tail Drop Loss, mean"
attr unit ratio
scalar SingleCell.ue[0].app[0] voIPMos:mean nan
attr recordingmode mean
attr source voIPMos
attr title "VoIP Mos Signal, mean"
attr unit MOS
scalar SingleCell.ue[0].app[0] voIPJitter:mean nan
attr recordingmode mean
attr source voIPJitter
attr title "VoIP Playout Loss, mean"
attr unit s
scalar SingleCell.ue[0].app[0] voIPPlayoutLoss:mean nan
attr recordingmode mean
attr source voIPPlayoutLoss
attr title "VoIP Playout Loss, mean"
attr unit ratio
scalar SingleCell.ue[0].app[0] voIPPlayoutDelay:mean nan
attr recordingmode mean
attr source voIPPlayoutDelay
attr title "VoIP Playout Delay, mean"
attr unit s
scalar SingleCell.ue[0].app[0] voIPFrameDelay:mean nan
attr recordingmode mean
attr source voIPFrameDelay
attr title "VoIP Frame Delay, mean"
attr unit s
scalar SingleCell.ue[0].app[0] voIPFrameLoss:mean nan
attr recordingmode mean
attr source voIPFrameLoss
attr title "VoIP Frame Loss, mean"
attr unit ratio
par SingleCell.ue[0].at typename "\"inet.common.MessageDispatcher\""
par SingleCell.ue[0].at displayStringTextFormat "\"processed %p pk (%l)\""
par SingleCell.ue[0].at forwardServiceRegistration true
par SingleCell.ue[0].at forwardProtocolRegistration true
par SingleCell.ue[0].tn typename "\"inet.common.MessageDispatcher\""
par SingleCell.ue[0].tn displayStringTextFormat "\"processed %p pk (%l)\""
par SingleCell.ue[0].tn forwardServiceRegistration true
par SingleCell.ue[0].tn forwardProtocolRegistration true
par SingleCell.ue[0].nl typename "\"inet.common.MessageDispatcher\""
par SingleCell.ue[0].nl displayStringTextFormat "\"processed %p pk (%l)\""
par SingleCell.ue[0].nl forwardServiceRegistration true
par SingleCell.ue[0].nl forwardProtocolRegistration true
par SingleCell.ue[0] typename "\"simu5g.nodes.Ue\""
par SingleCell.ue[0] numApps 1
par SingleCell.ue[0] hasUdp true
par SingleCell.ue[0] hasTcp true
par SingleCell.ue[0] hasSctp false
par SingleCell.ue[0] nodeType "\"UE\""
par SingleCell.ue[0] masterId 1
attr mutable ""
par SingleCell.ue[0] macNodeId 1025
attr mutable ""
par SingleCell.ue[0] macCellId 1
attr mutable ""
par SingleCell.ue[0] nicType "\"LteNicUe\""
par SingleCell.ue[0] hasIpv4 true
par SingleCell.ue[0] hasIpv6 false
par SingleCell.ue[0] numEthInterfaces 0
par SingleCell.ue[0] extHostAddress "\"\""
par SingleCell.ue[0] numLoInterfaces 1
par SingleCell.ue[0] numPcapRecorders 0
par SingleCell.ue[0] hasRNISupport false
par SingleCell typename "\"_4gltefinal.simulations.SingleCell\""
par SingleCell numUe 1

